data_image0
_chemical_formula_structural       Cd2H16C24S4Br4N8
_chemical_formula_sum              "Cd2 H16 C24 S4 Br4 N8"
_cell_length_a       5.78862
_cell_length_b       9.62085
_cell_length_c       14.9048
_cell_angle_alpha    101.742
_cell_angle_beta     90.0004
_cell_angle_gamma    89.9993

_space_group_name_H-M_alt    "P 1"
_space_group_IT_number       1

loop_
  _space_group_symop_operation_xyz
  'x, y, z'

loop_
  _atom_site_type_symbol
  _atom_site_label
  _atom_site_symmetry_multiplicity
  _atom_site_fract_x
  _atom_site_fract_y
  _atom_site_fract_z
  _atom_site_occupancy
  Cd  Cd1       1.0  0.50000  0.50000  0.50000  1.0000
  Cd  Cd2       1.0  0.00001  1.00000  0.00000  1.0000
  H   H1        1.0  0.73315  0.80860  0.54038  1.0000
  H   H2        1.0  0.23316  0.69139  0.95962  1.0000
  H   H3        1.0  0.26684  0.19140  0.45961  1.0000
  H   H4        1.0  0.76684  0.30861  0.04039  1.0000
  H   H5        1.0  0.32857  0.12230  0.72392  1.0000
  H   H6        1.0  0.82856  0.37770  0.77607  1.0000
  H   H7        1.0  0.67141  0.87770  0.27607  1.0000
  H   H8        1.0  0.17143  0.62231  0.22393  1.0000
  H   H9        1.0  0.05558  0.92691  0.74075  1.0000
  H   H10       1.0  0.55557  0.57310  0.75926  1.0000
  H   H11       1.0  0.94441  0.07308  0.25924  1.0000
  H   H12       1.0  0.44442  0.42691  0.24075  1.0000
  H   H13       1.0  0.13294  0.68027  0.65254  1.0000
  H   H14       1.0  0.63295  0.81973  0.84747  1.0000
  H   H15       1.0  0.86707  0.31972  0.34746  1.0000
  H   H16       1.0  0.36706  0.18028  0.15254  1.0000
  C   C1        1.0  0.99450  0.56748  0.40186  1.0000
  C   C2        1.0  0.49452  0.93252  0.09815  1.0000
  C   C3        1.0  0.00550  0.43251  0.59815  1.0000
  C   C4        1.0  0.50549  0.06748  0.90185  1.0000
  C   C5        1.0  0.58566  0.83837  0.58572  1.0000
  C   C6        1.0  0.08567  0.66162  0.91429  1.0000
  C   C7        1.0  0.41434  0.16162  0.41428  1.0000
  C   C8        1.0  0.91435  0.33839  0.08572  1.0000
  C   C9        1.0  0.55076  0.97850  0.63125  1.0000
  C   C10       1.0  0.05077  0.52150  0.86876  1.0000
  C   C11       1.0  0.44922  0.02149  0.36875  1.0000
  C   C12       1.0  0.94924  0.47852  0.13124  1.0000
  C   C13       1.0  0.35894  0.01357  0.68774  1.0000
  C   C14       1.0  0.85893  0.48643  0.81226  1.0000
  C   C15       1.0  0.64107  0.98643  0.31225  1.0000
  C   C16       1.0  0.14107  0.51358  0.18774  1.0000
  C   C17       1.0  0.20663  0.90462  0.69642  1.0000
  C   C18       1.0  0.70662  0.59537  0.80358  1.0000
  C   C19       1.0  0.79337  0.09536  0.30357  1.0000
  C   C20       1.0  0.29337  0.40463  0.19642  1.0000
  C   C21       1.0  0.25003  0.76737  0.64813  1.0000
  C   C22       1.0  0.75003  0.73263  0.85188  1.0000
  C   C23       1.0  0.74999  0.23263  0.35187  1.0000
  C   C24       1.0  0.24998  0.26737  0.14813  1.0000
  S   S1        1.0  0.74181  0.62339  0.37625  1.0000
  S   S2        1.0  0.24182  0.87660  0.12375  1.0000
  S   S3        1.0  0.25820  0.37659  0.62374  1.0000
  S   S4        1.0  0.75819  0.12341  0.87626  1.0000
  Br  Br1       1.0  0.76577  0.11937  0.61349  1.0000
  Br  Br2       1.0  0.26579  0.38063  0.88651  1.0000
  Br  Br3       1.0  0.23421  0.88062  0.38650  1.0000
  Br  Br4       1.0  0.73420  0.61938  0.11349  1.0000
  N   N1        1.0  0.17765  0.52383  0.41783  1.0000
  N   N2        1.0  0.67766  0.97617  0.08217  1.0000
  N   N3        1.0  0.82235  0.47615  0.58217  1.0000
  N   N4        1.0  0.32235  0.02384  0.91783  1.0000
  N   N5        1.0  0.43633  0.73492  0.59378  1.0000
  N   N6        1.0  0.93635  0.76507  0.90622  1.0000
  N   N7        1.0  0.56366  0.26507  0.40622  1.0000
  N   N8        1.0  0.06366  0.23493  0.09378  1.0000
