data_image0
_chemical_formula_structural       Cu2H38C36N6O8
_chemical_formula_sum              "Cu2 H38 C36 N6 O8"
_cell_length_a       8.49528
_cell_length_b       8.76339
_cell_length_c       12.3224
_cell_angle_alpha    99.2928
_cell_angle_beta     95.0008
_cell_angle_gamma    106.295

_space_group_name_H-M_alt    "P 1"
_space_group_IT_number       1

loop_
  _space_group_symop_operation_xyz
  'x, y, z'

loop_
  _atom_site_type_symbol
  _atom_site_label
  _atom_site_symmetry_multiplicity
  _atom_site_fract_x
  _atom_site_fract_y
  _atom_site_fract_z
  _atom_site_occupancy
  Cu  Cu1       1.0  0.50435  0.97334  0.10155  1.0000
  Cu  Cu2       1.0  0.49564  0.02664  0.89846  1.0000
  H   H1        1.0  0.25806  0.83592  0.60444  1.0000
  H   H2        1.0  0.74195  0.16410  0.39557  1.0000
  H   H3        1.0  0.11428  0.19789  0.43458  1.0000
  H   H4        1.0  0.88572  0.80214  0.56541  1.0000
  H   H5        1.0  0.96445  0.40066  0.10920  1.0000
  H   H6        1.0  0.03554  0.59933  0.89079  1.0000
  H   H7        1.0  0.14336  0.38058  0.76926  1.0000
  H   H8        1.0  0.85668  0.61941  0.23074  1.0000
  H   H9        1.0  0.24192  0.66594  0.74149  1.0000
  H   H10       1.0  0.75809  0.33406  0.25851  1.0000
  H   H11       1.0  0.32943  0.08514  0.29237  1.0000
  H   H12       1.0  0.67060  0.91488  0.70764  1.0000
  H   H13       1.0  0.46048  0.50452  0.11864  1.0000
  H   H14       1.0  0.53951  0.49547  0.88136  1.0000
  H   H15       1.0  0.21093  0.98674  0.45666  1.0000
  H   H16       1.0  0.78909  0.01329  0.54335  1.0000
  H   H17       1.0  0.02891  0.23804  0.24330  1.0000
  H   H18       1.0  0.97108  0.76194  0.75669  1.0000
  H   H19       1.0  0.11160  0.12751  0.14253  1.0000
  H   H20       1.0  0.88838  0.87248  0.85746  1.0000
  H   H21       1.0  0.48815  0.64049  0.42098  1.0000
  H   H22       1.0  0.51184  0.35952  0.57903  1.0000
  H   H23       1.0  0.98895  0.32666  0.90983  1.0000
  H   H24       1.0  0.01104  0.67334  0.09016  1.0000
  H   H25       1.0  0.08699  0.18238  0.93801  1.0000
  H   H26       1.0  0.91299  0.81761  0.06198  1.0000
  H   H27       1.0  0.33943  0.35615  0.26337  1.0000
  H   H28       1.0  0.66056  0.64383  0.73662  1.0000
  H   H29       1.0  0.23764  0.49619  0.22823  1.0000
  H   H30       1.0  0.76236  0.50379  0.77177  1.0000
  H   H31       1.0  0.59276  0.75308  0.25977  1.0000
  H   H32       1.0  0.40724  0.24692  0.74024  1.0000
  H   H33       1.0  0.20520  0.47181  0.39167  1.0000
  H   H34       1.0  0.79479  0.52821  0.60834  1.0000
  H   H35       1.0  0.21931  0.54966  0.03162  1.0000
  H   H36       1.0  0.78067  0.45033  0.96838  1.0000
  H   H37       1.0  0.29968  0.43985  0.92881  1.0000
  H   H38       1.0  0.70031  0.56015  0.07119  1.0000
  C   C1        1.0  0.14518  0.30382  0.50204  1.0000
  C   C2        1.0  0.85484  0.69619  0.49795  1.0000
  C   C3        1.0  0.33754  0.80323  0.45184  1.0000
  C   C4        1.0  0.66247  0.19679  0.54818  1.0000
  C   C5        1.0  0.98323  0.28217  0.07724  1.0000
  C   C6        1.0  0.01675  0.71781  0.92275  1.0000
  C   C7        1.0  0.16003  0.40496  0.68616  1.0000
  C   C8        1.0  0.84000  0.59503  0.31384  1.0000
  C   C9        1.0  0.21447  0.56455  0.67142  1.0000
  C   C10       1.0  0.78555  0.43545  0.32858  1.0000
  C   C11       1.0  0.80720  0.16615  0.05096  1.0000
  C   C12       1.0  0.19279  0.83384  0.94903  1.0000
  C   C13       1.0  0.23399  0.59353  0.56364  1.0000
  C   C14       1.0  0.76602  0.40648  0.43636  1.0000
  C   C15       1.0  0.36097  0.98674  0.32419  1.0000
  C   C16       1.0  0.63905  0.01328  0.67582  1.0000
  C   C17       1.0  0.34842  0.39898  0.09537  1.0000
  C   C18       1.0  0.65156  0.60100  0.90463  1.0000
  C   C19       1.0  0.29574  0.93236  0.41515  1.0000
  C   C20       1.0  0.70428  0.06767  0.58487  1.0000
  C   C21       1.0  0.09235  0.24637  0.16954  1.0000
  C   C22       1.0  0.90764  0.75361  0.83044  1.0000
  C   C23       1.0  0.41147  0.25438  0.05737  1.0000
  C   C24       1.0  0.58852  0.74561  0.94263  1.0000
  C   C25       1.0  0.44619  0.73679  0.39432  1.0000
  C   C26       1.0  0.55381  0.26322  0.60569  1.0000
  C   C27       1.0  0.06952  0.29930  0.97375  1.0000
  C   C28       1.0  0.93047  0.70070  0.02625  1.0000
  C   C29       1.0  0.25903  0.37947  0.19734  1.0000
  C   C30       1.0  0.74095  0.62051  0.80266  1.0000
  C   C31       1.0  0.50616  0.80057  0.30466  1.0000
  C   C32       1.0  0.49384  0.19943  0.69535  1.0000
  C   C33       1.0  0.19803  0.45770  0.47720  1.0000
  C   C34       1.0  0.80197  0.54231  0.52280  1.0000
  C   C35       1.0  0.23692  0.43079  0.00266  1.0000
  C   C36       1.0  0.76308  0.56920  0.99733  1.0000
  N   N1        1.0  0.46481  0.92299  0.26852  1.0000
  N   N2        1.0  0.53520  0.07703  0.73149  1.0000
  N   N3        1.0  0.27748  0.75071  0.54510  1.0000
  N   N4        1.0  0.72253  0.24931  0.45491  1.0000
  N   N5        1.0  0.12546  0.27354  0.60430  1.0000
  N   N6        1.0  0.87457  0.72647  0.39570  1.0000
  O   O1        1.0  0.44488  0.17898  0.13217  1.0000
  O   O2        1.0  0.55514  0.82102  0.86783  1.0000
  O   O3        1.0  0.42793  0.22206  0.95527  1.0000
  O   O4        1.0  0.57202  0.77791  0.04473  1.0000
  O   O5        1.0  0.73423  0.14839  0.95307  1.0000
  O   O6        1.0  0.26576  0.85164  0.04693  1.0000
  O   O7        1.0  0.74507  0.10286  0.12970  1.0000
  O   O8        1.0  0.25492  0.89710  0.87029  1.0000
