data_image0
_chemical_formula_structural       Mn2H30C46N4O10
_chemical_formula_sum              "Mn2 H30 C46 N4 O10"
_cell_length_a       9.67927
_cell_length_b       10.5792
_cell_length_c       10.875
_cell_angle_alpha    105.217
_cell_angle_beta     111.72
_cell_angle_gamma    107.174

_space_group_name_H-M_alt    "P 1"
_space_group_IT_number       1

loop_
  _space_group_symop_operation_xyz
  'x, y, z'

loop_
  _atom_site_type_symbol
  _atom_site_label
  _atom_site_symmetry_multiplicity
  _atom_site_fract_x
  _atom_site_fract_y
  _atom_site_fract_z
  _atom_site_occupancy
  Mn  Mn1       1.0  0.14834  0.02475  0.16669  1.0000
  Mn  Mn2       1.0  0.85166  0.97525  0.83331  1.0000
  H   H1        1.0  0.65206  0.85466  0.05707  1.0000
  H   H2        1.0  0.34793  0.14534  0.94292  1.0000
  H   H3        1.0  0.88089  0.29279  0.03002  1.0000
  H   H4        1.0  0.11910  0.70720  0.96997  1.0000
  H   H5        1.0  0.02770  0.55692  0.10707  1.0000
  H   H6        1.0  0.97230  0.44308  0.89293  1.0000
  H   H7        1.0  0.49194  0.35889  0.09981  1.0000
  H   H8        1.0  0.50806  0.64112  0.90019  1.0000
  H   H9        1.0  0.64055  0.62239  0.17394  1.0000
  H   H10       1.0  0.35945  0.37761  0.82606  1.0000
  H   H11       1.0  0.33326  0.82540  0.24396  1.0000
  H   H12       1.0  0.66673  0.17461  0.75603  1.0000
  H   H13       1.0  0.62782  0.86301  0.38675  1.0000
  H   H14       1.0  0.37216  0.13698  0.61325  1.0000
  H   H15       1.0  0.85670  0.11270  0.50619  1.0000
  H   H16       1.0  0.14330  0.88729  0.49381  1.0000
  H   H17       1.0  0.94391  0.38182  0.57004  1.0000
  H   H18       1.0  0.05609  0.61817  0.42996  1.0000
  H   H19       1.0  0.86914  0.58068  0.54652  1.0000
  H   H20       1.0  0.13087  0.41931  0.45349  1.0000
  H   H21       1.0  0.65089  0.66176  0.43453  1.0000
  H   H22       1.0  0.34913  0.33824  0.56547  1.0000
  H   H23       1.0  0.35306  0.59040  0.26308  1.0000
  H   H24       1.0  0.64696  0.40961  0.73692  1.0000
  H   H25       1.0  0.14955  0.32720  0.13902  1.0000
  H   H26       1.0  0.85046  0.67281  0.86099  1.0000
  H   H27       1.0  0.08456  0.16796  0.35301  1.0000
  H   H28       1.0  0.91543  0.83204  0.64699  1.0000
  H   H29       1.0  0.05681  0.01527  0.35590  1.0000
  H   H30       1.0  0.94320  0.98473  0.64410  1.0000
  C   C1        1.0  0.85682  0.11788  0.13654  1.0000
  C   C2        1.0  0.14317  0.88212  0.86345  1.0000
  C   C3        1.0  0.67225  0.06167  0.05952  1.0000
  C   C4        1.0  0.32773  0.93833  0.94047  1.0000
  C   C5        1.0  0.58255  0.91631  0.02789  1.0000
  C   C6        1.0  0.41744  0.08369  0.97210  1.0000
  C   C7        1.0  0.59007  0.14974  0.03207  1.0000
  C   C8        1.0  0.40993  0.85026  0.96792  1.0000
  C   C9        1.0  0.67654  0.30477  0.06437  1.0000
  C   C10       1.0  0.32346  0.69523  0.93563  1.0000
  C   C11       1.0  0.82744  0.36339  0.06418  1.0000
  C   C12       1.0  0.17255  0.63660  0.93581  1.0000
  C   C13       1.0  0.90947  0.51193  0.10442  1.0000
  C   C14       1.0  0.09053  0.48807  0.89557  1.0000
  C   C15       1.0  0.60931  0.40073  0.10035  1.0000
  C   C16       1.0  0.39069  0.59927  0.89965  1.0000
  C   C17       1.0  0.69207  0.54914  0.14197  1.0000
  C   C18       1.0  0.30794  0.45086  0.85803  1.0000
  C   C19       1.0  0.84387  0.60696  0.14516  1.0000
  C   C20       1.0  0.15613  0.39304  0.85484  1.0000
  C   C21       1.0  0.93468  0.76769  0.19459  1.0000
  C   C22       1.0  0.06533  0.23230  0.80541  1.0000
  C   C23       1.0  0.43799  0.93267  0.29738  1.0000
  C   C24       1.0  0.56201  0.06733  0.70261  1.0000
  C   C25       1.0  0.60114  0.95389  0.37689  1.0000
  C   C26       1.0  0.39885  0.04610  0.62311  1.0000
  C   C27       1.0  0.72853  0.09278  0.44421  1.0000
  C   C28       1.0  0.27146  0.90722  0.55579  1.0000
  C   C29       1.0  0.69202  0.21032  0.43270  1.0000
  C   C30       1.0  0.30798  0.78968  0.56730  1.0000
  C   C31       1.0  0.81546  0.35824  0.50315  1.0000
  C   C32       1.0  0.18454  0.64176  0.49686  1.0000
  C   C33       1.0  0.77412  0.46841  0.48888  1.0000
  C   C34       1.0  0.22589  0.53159  0.51113  1.0000
  C   C35       1.0  0.60641  0.43874  0.39936  1.0000
  C   C36       1.0  0.39360  0.56126  0.60064  1.0000
  C   C37       1.0  0.55808  0.54824  0.37763  1.0000
  C   C38       1.0  0.44193  0.45177  0.62237  1.0000
  C   C39       1.0  0.39461  0.50931  0.28384  1.0000
  C   C40       1.0  0.60540  0.49070  0.71616  1.0000
  C   C41       1.0  0.27913  0.36202  0.21441  1.0000
  C   C42       1.0  0.72088  0.63799  0.78560  1.0000
  C   C43       1.0  0.48107  0.29315  0.32640  1.0000
  C   C44       1.0  0.51894  0.70686  0.67361  1.0000
  C   C45       1.0  0.52388  0.17780  0.34656  1.0000
  C   C46       1.0  0.47612  0.82220  0.65344  1.0000
  N   N1        1.0  0.40026  0.04061  0.28075  1.0000
  N   N2        1.0  0.59974  0.95939  0.71925  1.0000
  N   N3        1.0  0.32049  0.25715  0.23613  1.0000
  N   N4        1.0  0.67952  0.74286  0.76388  1.0000
  O   O1        1.0  0.92053  0.05656  0.06672  1.0000
  O   O2        1.0  0.07946  0.94344  0.93328  1.0000
  O   O3        1.0  0.93851  0.21320  0.26510  1.0000
  O   O4        1.0  0.06148  0.78680  0.73490  1.0000
  O   O5        1.0  0.03422  0.81008  0.14561  1.0000
  O   O6        1.0  0.96578  0.18991  0.85439  1.0000
  O   O7        1.0  0.90927  0.85120  0.28195  1.0000
  O   O8        1.0  0.09073  0.14880  0.71805  1.0000
  O   O9        1.0  0.14705  0.10976  0.37714  1.0000
  O   O10       1.0  0.85294  0.89024  0.62286  1.0000
