data_image0
_chemical_formula_structural       Cu2H24C24S2N6O10
_chemical_formula_sum              "Cu2 H24 C24 S2 N6 O10"
_cell_length_a       7.7202
_cell_length_b       9.2987
_cell_length_c       10.8058
_cell_angle_alpha    99.4888
_cell_angle_beta     96.7137
_cell_angle_gamma    94.1358

_space_group_name_H-M_alt    "P 1"
_space_group_IT_number       1

loop_
  _space_group_symop_operation_xyz
  'x, y, z'

loop_
  _atom_site_type_symbol
  _atom_site_label
  _atom_site_symmetry_multiplicity
  _atom_site_fract_x
  _atom_site_fract_y
  _atom_site_fract_z
  _atom_site_occupancy
  Cu  Cu1       1.0  0.72723  0.79513  0.94272  1.0000
  Cu  Cu2       1.0  0.27277  0.20487  0.05728  1.0000
  H   H1        1.0  0.98518  0.38545  0.07183  1.0000
  H   H2        1.0  0.01481  0.61456  0.92817  1.0000
  H   H3        1.0  0.15709  0.76585  0.35923  1.0000
  H   H4        1.0  0.84292  0.23415  0.64077  1.0000
  H   H5        1.0  0.45859  0.67517  0.37360  1.0000
  H   H6        1.0  0.54140  0.32482  0.62641  1.0000
  H   H7        1.0  0.50365  0.44217  0.23688  1.0000
  H   H8        1.0  0.49635  0.55782  0.76313  1.0000
  H   H9        1.0  0.09191  0.92127  0.16469  1.0000
  H   H10       1.0  0.90809  0.07873  0.83530  1.0000
  H   H11       1.0  0.94025  0.93121  0.27726  1.0000
  H   H12       1.0  0.05977  0.06880  0.72273  1.0000
  H   H13       1.0  0.81566  0.74671  0.67345  1.0000
  H   H14       1.0  0.18435  0.25329  0.32656  1.0000
  H   H15       1.0  0.72027  0.83305  0.47548  1.0000
  H   H16       1.0  0.27975  0.16694  0.52452  1.0000
  H   H17       1.0  0.36931  0.09668  0.68215  1.0000
  H   H18       1.0  0.63069  0.90332  0.31784  1.0000
  H   H19       1.0  0.47327  0.99179  0.86771  1.0000
  H   H20       1.0  0.52672  0.00821  0.13228  1.0000
  H   H21       1.0  0.38253  0.65676  0.96247  1.0000
  H   H22       1.0  0.61746  0.34324  0.03754  1.0000
  H   H23       1.0  0.35766  0.82476  0.98549  1.0000
  H   H24       1.0  0.64233  0.17524  0.01451  1.0000
  C   C1        1.0  0.08625  0.45440  0.13819  1.0000
  C   C2        1.0  0.91375  0.54560  0.86180  1.0000
  C   C3        1.0  0.05061  0.58444  0.21071  1.0000
  C   C4        1.0  0.94939  0.41556  0.78928  1.0000
  C   C5        1.0  0.18364  0.66600  0.29889  1.0000
  C   C6        1.0  0.81637  0.33400  0.70111  1.0000
  C   C7        1.0  0.34924  0.61557  0.30828  1.0000
  C   C8        1.0  0.65076  0.38443  0.69173  1.0000
  C   C9        1.0  0.37597  0.48501  0.23235  1.0000
  C   C10       1.0  0.62402  0.51499  0.76766  1.0000
  C   C11       1.0  0.95120  0.91385  0.17527  1.0000
  C   C12       1.0  0.04880  0.08615  0.82472  1.0000
  C   C13       1.0  0.87439  0.04161  0.12321  1.0000
  C   C14       1.0  0.12561  0.95840  0.87678  1.0000
  C   C15       1.0  0.71263  0.82033  0.66957  1.0000
  C   C16       1.0  0.28738  0.17966  0.33044  1.0000
  C   C17       1.0  0.65972  0.87241  0.55922  1.0000
  C   C18       1.0  0.34029  0.12758  0.44078  1.0000
  C   C19       1.0  0.53093  0.97189  0.55809  1.0000
  C   C20       1.0  0.46908  0.02810  0.44191  1.0000
  C   C21       1.0  0.46477  0.01620  0.67254  1.0000
  C   C22       1.0  0.53523  0.98379  0.32745  1.0000
  C   C23       1.0  0.52365  0.95858  0.77873  1.0000
  C   C24       1.0  0.47635  0.04141  0.22127  1.0000
  S   S1        1.0  0.83803  0.64758  0.18553  1.0000
  S   S2        1.0  0.16198  0.35242  0.81447  1.0000
  N   N1        1.0  0.64423  0.86111  0.77777  1.0000
  N   N2        1.0  0.35577  0.13889  0.22223  1.0000
  N   N3        1.0  0.86139  0.77501  0.10698  1.0000
  N   N4        1.0  0.13860  0.22500  0.89302  1.0000
  N   N5        1.0  0.24587  0.40556  0.15031  1.0000
  N   N6        1.0  0.75413  0.59443  0.84969  1.0000
  O   O1        1.0  0.44445  0.75349  0.99713  1.0000
  O   O2        1.0  0.55554  0.24651  0.00289  1.0000
  O   O3        1.0  0.75995  0.00712  0.02130  1.0000
  O   O4        1.0  0.24005  0.99288  0.97870  1.0000
  O   O5        1.0  0.91907  0.16984  0.17614  1.0000
  O   O6        1.0  0.08093  0.83017  0.82385  1.0000
  O   O7        1.0  0.72543  0.52670  0.10736  1.0000
  O   O8        1.0  0.27457  0.47331  0.89265  1.0000
  O   O9        1.0  0.79568  0.69856  0.31296  1.0000
  O   O10       1.0  0.20433  0.30145  0.68705  1.0000
