data_image0
_chemical_formula_structural       Cu4P4H24C36N4O12
_chemical_formula_sum              "Cu4 P4 H24 C36 N4 O12"
_cell_length_a       7.8825
_cell_length_b       8.00743
_cell_length_c       13.7683
_cell_angle_alpha    90.0002
_cell_angle_beta     100.063
_cell_angle_gamma    90.0001

_space_group_name_H-M_alt    "P 1"
_space_group_IT_number       1

loop_
  _space_group_symop_operation_xyz
  'x, y, z'

loop_
  _atom_site_type_symbol
  _atom_site_label
  _atom_site_symmetry_multiplicity
  _atom_site_fract_x
  _atom_site_fract_y
  _atom_site_fract_z
  _atom_site_occupancy
  Cu  Cu1       1.0  0.82933  0.45362  0.04282  1.0000
  Cu  Cu2       1.0  0.67067  0.95361  0.95718  1.0000
  Cu  Cu3       1.0  0.17067  0.54639  0.95718  1.0000
  Cu  Cu4       1.0  0.32933  0.04638  0.04282  1.0000
  P   P1        1.0  0.99681  0.81469  0.07641  1.0000
  P   P2        1.0  0.50320  0.31469  0.92359  1.0000
  P   P3        1.0  0.00320  0.18531  0.92359  1.0000
  P   P4        1.0  0.49680  0.68531  0.07641  1.0000
  H   H1        1.0  0.16330  0.86453  0.28219  1.0000
  H   H2        1.0  0.33671  0.36453  0.71781  1.0000
  H   H3        1.0  0.83670  0.13547  0.71781  1.0000
  H   H4        1.0  0.66330  0.63547  0.28219  1.0000
  H   H5        1.0  0.18369  0.67889  0.43220  1.0000
  H   H6        1.0  0.31632  0.17889  0.56780  1.0000
  H   H7        1.0  0.81631  0.32111  0.56780  1.0000
  H   H8        1.0  0.68369  0.82111  0.43220  1.0000
  H   H9        1.0  0.14086  0.39627  0.49995  1.0000
  H   H10       1.0  0.35915  0.89627  0.50005  1.0000
  H   H11       1.0  0.85914  0.60373  0.50005  1.0000
  H   H12       1.0  0.64085  0.10373  0.49994  1.0000
  H   H13       1.0  0.04501  0.10219  0.47082  1.0000
  H   H14       1.0  0.45500  0.60220  0.52918  1.0000
  H   H15       1.0  0.95499  0.89780  0.52917  1.0000
  H   H16       1.0  0.54501  0.39780  0.47082  1.0000
  H   H17       1.0  0.91503  0.00754  0.30075  1.0000
  H   H18       1.0  0.58497  0.50754  0.69925  1.0000
  H   H19       1.0  0.08497  0.99246  0.69924  1.0000
  H   H20       1.0  0.41503  0.49246  0.30075  1.0000
  H   H21       1.0  0.88545  0.20117  0.16056  1.0000
  H   H22       1.0  0.61454  0.70116  0.83943  1.0000
  H   H23       1.0  0.11454  0.79884  0.83943  1.0000
  H   H24       1.0  0.38546  0.29883  0.16056  1.0000
  C   C1        1.0  0.03239  0.67690  0.18438  1.0000
  C   C2        1.0  0.46762  0.17690  0.81563  1.0000
  C   C3        1.0  0.96761  0.32310  0.81562  1.0000
  C   C4        1.0  0.53239  0.82310  0.18438  1.0000
  C   C5        1.0  0.11360  0.73747  0.27772  1.0000
  C   C6        1.0  0.38640  0.23746  0.72228  1.0000
  C   C7        1.0  0.88640  0.26254  0.72228  1.0000
  C   C8        1.0  0.61360  0.76253  0.27772  1.0000
  C   C9        1.0  0.12643  0.63509  0.35871  1.0000
  C   C10       1.0  0.37357  0.13509  0.64129  1.0000
  C   C11       1.0  0.87356  0.36491  0.64128  1.0000
  C   C12       1.0  0.62644  0.86491  0.35872  1.0000
  C   C13       1.0  0.06734  0.46795  0.34700  1.0000
  C   C14       1.0  0.43265  0.96795  0.65300  1.0000
  C   C15       1.0  0.93265  0.53204  0.65300  1.0000
  C   C16       1.0  0.56735  0.03205  0.34700  1.0000
  C   C17       1.0  0.08440  0.35294  0.42617  1.0000
  C   C18       1.0  0.41559  0.85294  0.57383  1.0000
  C   C19       1.0  0.91559  0.64706  0.57383  1.0000
  C   C20       1.0  0.58440  0.14706  0.42617  1.0000
  C   C21       1.0  0.03079  0.18998  0.40942  1.0000
  C   C22       1.0  0.46921  0.68999  0.59058  1.0000
  C   C23       1.0  0.96921  0.81001  0.59058  1.0000
  C   C24       1.0  0.53079  0.31002  0.40942  1.0000
  C   C25       1.0  0.95777  0.13618  0.31343  1.0000
  C   C26       1.0  0.54223  0.63618  0.68656  1.0000
  C   C27       1.0  0.04222  0.86382  0.68656  1.0000
  C   C28       1.0  0.45777  0.36382  0.31344  1.0000
  C   C29       1.0  0.93895  0.24468  0.23461  1.0000
  C   C30       1.0  0.56105  0.74467  0.76539  1.0000
  C   C31       1.0  0.06104  0.75533  0.76539  1.0000
  C   C32       1.0  0.43896  0.25533  0.23461  1.0000
  C   C33       1.0  0.99345  0.41231  0.24996  1.0000
  C   C34       1.0  0.50655  0.91231  0.75004  1.0000
  C   C35       1.0  0.00654  0.58769  0.75004  1.0000
  C   C36       1.0  0.49345  0.08769  0.24996  1.0000
  N   N1        1.0  0.97516  0.52097  0.17207  1.0000
  N   N2        1.0  0.52484  0.02097  0.82794  1.0000
  N   N3        1.0  0.02484  0.47903  0.82793  1.0000
  N   N4        1.0  0.47516  0.97903  0.17207  1.0000
  O   O1        1.0  0.98644  0.69737  0.98635  1.0000
  O   O2        1.0  0.51356  0.19737  0.01365  1.0000
  O   O3        1.0  0.01356  0.30263  0.01365  1.0000
  O   O4        1.0  0.48644  0.80263  0.98635  1.0000
  O   O5        1.0  0.14060  0.94337  0.09577  1.0000
  O   O6        1.0  0.35940  0.44336  0.90423  1.0000
  O   O7        1.0  0.85940  0.05663  0.90423  1.0000
  O   O8        1.0  0.64060  0.55663  0.09578  1.0000
  O   O9        1.0  0.81997  0.89461  0.08016  1.0000
  O   O10       1.0  0.68003  0.39461  0.91984  1.0000
  O   O11       1.0  0.18003  0.10539  0.91984  1.0000
  O   O12       1.0  0.31997  0.60539  0.08016  1.0000
