data_image0
_chemical_formula_structural       Cd4P4H32C36N4O16
_chemical_formula_sum              "Cd4 P4 H32 C36 N4 O16"
_cell_length_a       5.47746
_cell_length_b       10.9222
_cell_length_c       17.0475
_cell_angle_alpha    102.44
_cell_angle_beta     89.9998
_cell_angle_gamma    89.9987

_space_group_name_H-M_alt    "P 1"
_space_group_IT_number       1

loop_
  _space_group_symop_operation_xyz
  'x, y, z'

loop_
  _atom_site_type_symbol
  _atom_site_label
  _atom_site_symmetry_multiplicity
  _atom_site_fract_x
  _atom_site_fract_y
  _atom_site_fract_z
  _atom_site_occupancy
  Cd  Cd1       1.0  0.40973  0.81781  0.58564  1.0000
  Cd  Cd2       1.0  0.90973  0.68216  0.41436  1.0000
  Cd  Cd3       1.0  0.59027  0.18217  0.41436  1.0000
  Cd  Cd4       1.0  0.09026  0.31782  0.58564  1.0000
  P   P1        1.0  0.88958  0.63123  0.60105  1.0000
  P   P2        1.0  0.38957  0.86875  0.39896  1.0000
  P   P3        1.0  0.11045  0.36875  0.39895  1.0000
  P   P4        1.0  0.61039  0.13124  0.60106  1.0000
  H   H1        1.0  0.02398  0.58651  0.75451  1.0000
  H   H2        1.0  0.52393  0.91349  0.24550  1.0000
  H   H3        1.0  0.97610  0.41351  0.24549  1.0000
  H   H4        1.0  0.47601  0.08654  0.75452  1.0000
  H   H5        1.0  0.85843  0.65818  0.89289  1.0000
  H   H6        1.0  0.35846  0.84182  0.10712  1.0000
  H   H7        1.0  0.14159  0.34182  0.10710  1.0000
  H   H8        1.0  0.64154  0.15816  0.89289  1.0000
  H   H9        1.0  0.55216  0.79110  0.98366  1.0000
  H   H10       1.0  0.05214  0.70891  0.01634  1.0000
  H   H11       1.0  0.44785  0.20892  0.01633  1.0000
  H   H12       1.0  0.94791  0.29111  0.98368  1.0000
  H   H13       1.0  0.20476  0.94156  0.00052  1.0000
  H   H14       1.0  0.70473  0.55845  0.99950  1.0000
  H   H15       1.0  0.79526  0.05845  0.99947  1.0000
  H   H16       1.0  0.29528  0.44157  0.00051  1.0000
  H   H17       1.0  0.02911  0.00740  0.88082  1.0000
  H   H18       1.0  0.52910  0.49261  0.11920  1.0000
  H   H19       1.0  0.97090  0.99259  0.11917  1.0000
  H   H20       1.0  0.47086  0.50743  0.88080  1.0000
  H   H21       1.0  0.20105  0.92746  0.74558  1.0000
  H   H22       1.0  0.70112  0.57255  0.25442  1.0000
  H   H23       1.0  0.79891  0.07253  0.25440  1.0000
  H   H24       1.0  0.29889  0.42744  0.74559  1.0000
  H   H25       1.0  0.94534  0.95737  0.61228  1.0000
  H   H26       1.0  0.44534  0.54257  0.38770  1.0000
  H   H27       1.0  0.05467  0.04259  0.38770  1.0000
  H   H28       1.0  0.55466  0.45738  0.61228  1.0000
  H   H29       1.0  0.18520  0.04209  0.62336  1.0000
  H   H30       1.0  0.68523  0.45788  0.37663  1.0000
  H   H31       1.0  0.81478  0.95791  0.37663  1.0000
  H   H32       1.0  0.31480  0.54210  0.62335  1.0000
  C   C1        1.0  0.76530  0.69581  0.70158  1.0000
  C   C2        1.0  0.26525  0.80418  0.29842  1.0000
  C   C3        1.0  0.23474  0.30418  0.29841  1.0000
  C   C4        1.0  0.73473  0.19581  0.70159  1.0000
  C   C5        1.0  0.87054  0.65120  0.76637  1.0000
  C   C6        1.0  0.37053  0.84881  0.23364  1.0000
  C   C7        1.0  0.12947  0.34881  0.23364  1.0000
  C   C8        1.0  0.62946  0.15121  0.76636  1.0000
  C   C9        1.0  0.77839  0.69058  0.84233  1.0000
  C   C10       1.0  0.27840  0.80942  0.15768  1.0000
  C   C11       1.0  0.22163  0.30941  0.15766  1.0000
  C   C12       1.0  0.72159  0.19057  0.84234  1.0000
  C   C13       1.0  0.57877  0.77529  0.85523  1.0000
  C   C14       1.0  0.07876  0.72473  0.14477  1.0000
  C   C15       1.0  0.42124  0.22472  0.14477  1.0000
  C   C16       1.0  0.92122  0.27528  0.85524  1.0000
  C   C17       1.0  0.47416  0.82121  0.93196  1.0000
  C   C18       1.0  0.97415  0.67881  0.06805  1.0000
  C   C19       1.0  0.52585  0.17881  0.06804  1.0000
  C   C20       1.0  0.02585  0.32122  0.93197  1.0000
  C   C21       1.0  0.28107  0.90437  0.94110  1.0000
  C   C22       1.0  0.78105  0.59565  0.05891  1.0000
  C   C23       1.0  0.71892  0.09566  0.05889  1.0000
  C   C24       1.0  0.21892  0.40437  0.94110  1.0000
  C   C25       1.0  0.18357  0.94293  0.87362  1.0000
  C   C26       1.0  0.68354  0.55708  0.12638  1.0000
  C   C27       1.0  0.81646  0.05708  0.12636  1.0000
  C   C28       1.0  0.31641  0.44294  0.87363  1.0000
  C   C29       1.0  0.28024  0.89951  0.79793  1.0000
  C   C30       1.0  0.78021  0.60050  0.20209  1.0000
  C   C31       1.0  0.71978  0.10049  0.20207  1.0000
  C   C32       1.0  0.21973  0.39950  0.79792  1.0000
  C   C33       1.0  0.48198  0.81632  0.78704  1.0000
  C   C34       1.0  0.98196  0.68371  0.21297  1.0000
  C   C35       1.0  0.51806  0.18369  0.21295  1.0000
  C   C36       1.0  0.01801  0.31631  0.78705  1.0000
  N   N1        1.0  0.57991  0.77621  0.71164  1.0000
  N   N2        1.0  0.07988  0.72380  0.28836  1.0000
  N   N3        1.0  0.42012  0.22379  0.28835  1.0000
  N   N4        1.0  0.92013  0.27620  0.71165  1.0000
  O   O1        1.0  0.75300  0.69706  0.54281  1.0000
  O   O2        1.0  0.25299  0.80294  0.45719  1.0000
  O   O3        1.0  0.24700  0.30293  0.45719  1.0000
  O   O4        1.0  0.74696  0.19704  0.54281  1.0000
  O   O5        1.0  0.84040  0.49002  0.58783  1.0000
  O   O6        1.0  0.34041  0.00997  0.41215  1.0000
  O   O7        1.0  0.15961  0.50996  0.41215  1.0000
  O   O8        1.0  0.65956  0.99002  0.58785  1.0000
  O   O9        1.0  0.16369  0.65962  0.60617  1.0000
  O   O10       1.0  0.66369  0.84035  0.39382  1.0000
  O   O11       1.0  0.83633  0.34037  0.39382  1.0000
  O   O12       1.0  0.33628  0.15963  0.60621  1.0000
  O   O13       1.0  0.11342  0.96352  0.63594  1.0000
  O   O14       1.0  0.61344  0.53644  0.36405  1.0000
  O   O15       1.0  0.88657  0.03646  0.36405  1.0000
  O   O16       1.0  0.38658  0.46355  0.63595  1.0000
