data_image0
_chemical_formula_structural       V4Cu2H20C30N6O12
_chemical_formula_sum              "V4 Cu2 H20 C30 N6 O12"
_cell_length_a       7.911
_cell_length_b       8.41705
_cell_length_c       12.5978
_cell_angle_alpha    83.7131
_cell_angle_beta     77.5028
_cell_angle_gamma    83.0057

_space_group_name_H-M_alt    "P 1"
_space_group_IT_number       1

loop_
  _space_group_symop_operation_xyz
  'x, y, z'

loop_
  _atom_site_type_symbol
  _atom_site_label
  _atom_site_symmetry_multiplicity
  _atom_site_fract_x
  _atom_site_fract_y
  _atom_site_fract_z
  _atom_site_occupancy
  V   V1        1.0  0.08138  0.14621  0.61578  1.0000
  V   V2        1.0  0.91857  0.85380  0.38422  1.0000
  V   V3        1.0  0.81063  0.85323  0.66042  1.0000
  V   V4        1.0  0.18935  0.14679  0.33959  1.0000
  Cu  Cu1       1.0  0.40239  0.08095  0.72528  1.0000
  Cu  Cu2       1.0  0.59763  0.91904  0.27472  1.0000
  H   H1        1.0  0.19294  0.79282  0.80546  1.0000
  H   H2        1.0  0.80707  0.20720  0.19453  1.0000
  H   H3        1.0  0.06782  0.66143  0.99004  1.0000
  H   H4        1.0  0.93219  0.33859  0.00995  1.0000
  H   H5        1.0  0.08468  0.79203  0.15739  1.0000
  H   H6        1.0  0.91532  0.20797  0.84260  1.0000
  H   H7        1.0  0.22695  0.04736  0.13326  1.0000
  H   H8        1.0  0.77307  0.95263  0.86674  1.0000
  H   H9        1.0  0.32893  0.28983  0.08899  1.0000
  H   H10       1.0  0.67107  0.71016  0.91101  1.0000
  H   H11       1.0  0.63975  0.55884  0.81522  1.0000
  H   H12       1.0  0.36028  0.44115  0.18478  1.0000
  H   H13       1.0  0.78076  0.52853  0.64111  1.0000
  H   H14       1.0  0.21924  0.47148  0.35888  1.0000
  H   H15       1.0  0.85622  0.51673  0.43775  1.0000
  H   H16       1.0  0.14375  0.48328  0.56224  1.0000
  H   H17       1.0  0.71533  0.32520  0.35453  1.0000
  H   H18       1.0  0.28463  0.67479  0.64548  1.0000
  H   H19       1.0  0.50606  0.15108  0.47527  1.0000
  H   H20       1.0  0.49393  0.84891  0.52474  1.0000
  C   C1        1.0  0.20168  0.84178  0.88051  1.0000
  C   C2        1.0  0.79834  0.15822  0.11949  1.0000
  C   C3        1.0  0.13117  0.77107  0.98340  1.0000
  C   C4        1.0  0.86884  0.22893  0.01660  1.0000
  C   C5        1.0  0.14062  0.84405  0.07588  1.0000
  C   C6        1.0  0.85939  0.15592  0.92411  1.0000
  C   C7        1.0  0.22060  0.98597  0.06278  1.0000
  C   C8        1.0  0.77943  0.01402  0.93722  1.0000
  C   C9        1.0  0.29027  0.04973  0.95784  1.0000
  C   C10       1.0  0.70977  0.95024  0.04216  1.0000
  C   C11       1.0  0.38145  0.19658  0.93174  1.0000
  C   C12       1.0  0.61859  0.80342  0.06827  1.0000
  C   C13       1.0  0.39492  0.30717  0.00360  1.0000
  C   C14       1.0  0.60510  0.69284  0.99640  1.0000
  C   C15       1.0  0.49008  0.44026  0.96304  1.0000
  C   C16       1.0  0.50993  0.55972  0.03696  1.0000
  C   C17       1.0  0.56528  0.45826  0.85090  1.0000
  C   C18       1.0  0.43475  0.54174  0.14911  1.0000
  C   C19       1.0  0.54288  0.34522  0.78303  1.0000
  C   C20       1.0  0.45713  0.65479  0.21698  1.0000
  C   C21       1.0  0.60091  0.34928  0.66392  1.0000
  C   C22       1.0  0.39910  0.65072  0.33608  1.0000
  C   C23       1.0  0.71926  0.44934  0.60175  1.0000
  C   C24       1.0  0.28072  0.55066  0.39824  1.0000
  C   C25       1.0  0.76265  0.44133  0.48884  1.0000
  C   C26       1.0  0.23732  0.55867  0.51114  1.0000
  C   C27       1.0  0.68446  0.33537  0.44205  1.0000
  C   C28       1.0  0.31553  0.66463  0.55795  1.0000
  C   C29       1.0  0.56797  0.23671  0.50909  1.0000
  C   C30       1.0  0.43202  0.76329  0.49091  1.0000
  N   N1        1.0  0.27966  0.97678  0.86873  1.0000
  N   N2        1.0  0.72035  0.02320  0.13127  1.0000
  N   N3        1.0  0.45475  0.21847  0.82523  1.0000
  N   N4        1.0  0.54526  0.78150  0.17476  1.0000
  N   N5        1.0  0.52892  0.24291  0.61721  1.0000
  N   N6        1.0  0.47107  0.75709  0.38277  1.0000
  O   O1        1.0  0.59343  0.87586  0.69358  1.0000
  O   O2        1.0  0.40655  0.12413  0.30643  1.0000
  O   O3        1.0  0.25596  0.01678  0.63667  1.0000
  O   O4        1.0  0.74400  0.98324  0.36333  1.0000
  O   O5        1.0  0.88676  0.04699  0.66007  1.0000
  O   O6        1.0  0.11322  0.95303  0.33993  1.0000
  O   O7        1.0  0.11237  0.21747  0.47413  1.0000
  O   O8        1.0  0.88759  0.78254  0.52589  1.0000
  O   O9        1.0  0.06416  0.29822  0.68953  1.0000
  O   O10       1.0  0.93582  0.70181  0.31047  1.0000
  O   O11       1.0  0.88150  0.72383  0.75330  1.0000
  O   O12       1.0  0.11848  0.27620  0.24670  1.0000
