data_image0
_chemical_formula_structural       CuH14C14N4O8
_chemical_formula_sum              "Cu1 H14 C14 N4 O8"
_cell_length_a       7.2103
_cell_length_b       7.71094
_cell_length_c       8.43335
_cell_angle_alpha    109.975
_cell_angle_beta     94.667
_cell_angle_gamma    117.639

_space_group_name_H-M_alt    "P 1"
_space_group_IT_number       1

loop_
  _space_group_symop_operation_xyz
  'x, y, z'

loop_
  _atom_site_type_symbol
  _atom_site_label
  _atom_site_symmetry_multiplicity
  _atom_site_fract_x
  _atom_site_fract_y
  _atom_site_fract_z
  _atom_site_occupancy
  Cu  Cu1       1.0  1.00000  1.00000  0.00000  1.0000
  H   H1        1.0  0.49091  0.84260  0.84095  1.0000
  H   H2        1.0  0.50910  0.15740  0.15905  1.0000
  H   H3        1.0  0.25992  0.57679  0.71695  1.0000
  H   H4        1.0  0.74009  0.42322  0.28305  1.0000
  H   H5        1.0  0.49913  0.73516  0.07705  1.0000
  H   H6        1.0  0.50087  0.26483  0.92294  1.0000
  H   H7        1.0  0.25865  0.73751  0.10695  1.0000
  H   H8        1.0  0.74134  0.26248  0.89305  1.0000
  H   H9        1.0  0.75706  0.77807  0.33300  1.0000
  H   H10       1.0  0.24294  0.22193  0.66700  1.0000
  H   H11       1.0  0.73594  0.80117  0.66553  1.0000
  H   H12       1.0  0.26407  0.19885  0.33447  1.0000
  H   H13       1.0  0.14070  0.68689  0.38782  1.0000
  H   H14       1.0  0.85930  0.31310  0.61218  1.0000
  C   C1        1.0  0.21453  0.42042  0.01053  1.0000
  C   C2        1.0  0.78546  0.57958  0.98947  1.0000
  C   C3        1.0  0.18640  0.82433  0.76429  1.0000
  C   C4        1.0  0.81360  0.17567  0.23571  1.0000
  C   C5        1.0  0.34341  0.74373  0.72872  1.0000
  C   C6        1.0  0.65659  0.25627  0.27128  1.0000
  C   C7        1.0  0.35588  0.66690  0.12389  1.0000
  C   C8        1.0  0.64411  0.33310  0.87611  1.0000
  C   C9        1.0  0.62762  0.76207  0.39523  1.0000
  C   C10       1.0  0.37238  0.23794  0.60477  1.0000
  C   C11       1.0  0.61745  0.77635  0.55975  1.0000
  C   C12       1.0  0.38255  0.22365  0.44025  1.0000
  C   C13       1.0  0.30258  0.71263  0.41805  1.0000
  C   C14       1.0  0.69742  0.28737  0.58195  1.0000
  N   N1        1.0  0.41480  0.74622  0.57166  1.0000
  N   N2        1.0  0.58520  0.25379  0.42835  1.0000
  N   N3        1.0  0.43089  0.72341  0.30994  1.0000
  N   N4        1.0  0.56911  0.27659  0.69006  1.0000
  O   O1        1.0  0.22986  0.30504  0.08505  1.0000
  O   O2        1.0  0.77013  0.69496  0.91495  1.0000
  O   O3        1.0  0.20847  0.91273  0.93140  1.0000
  O   O4        1.0  0.79152  0.08726  0.06860  1.0000
  O   O5        1.0  0.05211  0.79741  0.64227  1.0000
  O   O6        1.0  0.94790  0.20259  0.35773  1.0000
  O   O7        1.0  0.10143  0.35359  0.85878  1.0000
  O   O8        1.0  0.89857  0.64640  0.14122  1.0000
