data_image0
_chemical_formula_structural       CaP2H20C16O12
_chemical_formula_sum              "Ca1 P2 H20 C16 O12"
_cell_length_a       5.23535
_cell_length_b       5.76895
_cell_length_c       16.4341
_cell_angle_alpha    92.6864
_cell_angle_beta     91.7754
_cell_angle_gamma    93.03

_space_group_name_H-M_alt    "P 1"
_space_group_IT_number       1

loop_
  _space_group_symop_operation_xyz
  'x, y, z'

loop_
  _atom_site_type_symbol
  _atom_site_label
  _atom_site_symmetry_multiplicity
  _atom_site_fract_x
  _atom_site_fract_y
  _atom_site_fract_z
  _atom_site_occupancy
  Ca  Ca1       1.0  0.50000  0.49999  0.50000  1.0000
  P   P1        1.0  0.80051  0.01658  0.40119  1.0000
  P   P2        1.0  0.19949  0.98342  0.59881  1.0000
  H   H1        1.0  0.19728  0.04865  0.44580  1.0000
  H   H2        1.0  0.80272  0.95135  0.55420  1.0000
  H   H3        1.0  0.04997  0.85469  0.19354  1.0000
  H   H4        1.0  0.95005  0.14531  0.80646  1.0000
  H   H5        1.0  0.96643  0.47811  0.06332  1.0000
  H   H6        1.0  0.03356  0.52188  0.93668  1.0000
  H   H7        1.0  0.60661  0.58195  0.14987  1.0000
  H   H8        1.0  0.39339  0.41805  0.85013  1.0000
  H   H9        1.0  0.47128  0.32684  0.26045  1.0000
  H   H10       1.0  0.52873  0.67316  0.73955  1.0000
  H   H11       1.0  0.71922  0.74022  0.28974  1.0000
  H   H12       1.0  0.28077  0.25978  0.71026  1.0000
  H   H13       1.0  0.45977  0.92053  0.30769  1.0000
  H   H14       1.0  0.54024  0.07947  0.69231  1.0000
  H   H15       1.0  0.44051  0.17020  0.97699  1.0000
  H   H16       1.0  0.55948  0.82980  0.02301  1.0000
  H   H17       1.0  0.16097  0.68594  0.38394  1.0000
  H   H18       1.0  0.83904  0.31405  0.61607  1.0000
  H   H19       1.0  0.03661  0.43415  0.39324  1.0000
  H   H20       1.0  0.96340  0.56585  0.60676  1.0000
  C   C1        1.0  0.75360  0.07512  0.23542  1.0000
  C   C2        1.0  0.24640  0.92488  0.76458  1.0000
  C   C3        1.0  0.95370  0.01562  0.18572  1.0000
  C   C4        1.0  0.04630  0.98438  0.81428  1.0000
  C   C5        1.0  0.03028  0.15926  0.12337  1.0000
  C   C6        1.0  0.96972  0.84075  0.87663  1.0000
  C   C7        1.0  0.90761  0.36572  0.11134  1.0000
  C   C8        1.0  0.09239  0.63427  0.88866  1.0000
  C   C9        1.0  0.70684  0.42484  0.16068  1.0000
  C   C10       1.0  0.29315  0.57515  0.83932  1.0000
  C   C11       1.0  0.63017  0.28112  0.22240  1.0000
  C   C12       1.0  0.36984  0.71889  0.77759  1.0000
  C   C13       1.0  0.66840  0.92065  0.30182  1.0000
  C   C14       1.0  0.33161  0.07935  0.69818  1.0000
  C   C15       1.0  0.23679  0.08559  0.06973  1.0000
  C   C16       1.0  0.76320  0.91442  0.93026  1.0000
  O   O1        1.0  0.75858  0.27213  0.42003  1.0000
  O   O2        1.0  0.24142  0.72787  0.57997  1.0000
  O   O3        1.0  0.70264  0.85152  0.46515  1.0000
  O   O4        1.0  0.29736  0.14848  0.53485  1.0000
  O   O5        1.0  0.10374  0.98803  0.39264  1.0000
  O   O6        1.0  0.89626  0.01197  0.60736  1.0000
  O   O7        1.0  0.29279  0.22896  0.01174  1.0000
  O   O8        1.0  0.70721  0.77105  0.98826  1.0000
  O   O9        1.0  0.34502  0.89995  0.07889  1.0000
  O   O10       1.0  0.65497  0.10006  0.92110  1.0000
  O   O11       1.0  0.20317  0.52196  0.38761  1.0000
  O   O12       1.0  0.79684  0.47803  0.61239  1.0000
