data_image0
_chemical_formula_structural       Er2H24C22O16
_chemical_formula_sum              "Er2 H24 C22 O16"
_cell_length_a       6.70424
_cell_length_b       9.95021
_cell_length_c       10.476
_cell_angle_alpha    93.5886
_cell_angle_beta     107.616
_cell_angle_gamma    108.57

_space_group_name_H-M_alt    "P 1"
_space_group_IT_number       1

loop_
  _space_group_symop_operation_xyz
  'x, y, z'

loop_
  _atom_site_type_symbol
  _atom_site_label
  _atom_site_symmetry_multiplicity
  _atom_site_fract_x
  _atom_site_fract_y
  _atom_site_fract_z
  _atom_site_occupancy
  Er  Er1       1.0  0.76088  0.58507  0.42241  1.0000
  Er  Er2       1.0  0.23912  0.41492  0.57758  1.0000
  H   H1        1.0  0.59373  0.67212  0.04561  1.0000
  H   H2        1.0  0.40627  0.32788  0.95439  1.0000
  H   H3        1.0  0.59426  0.95089  0.74680  1.0000
  H   H4        1.0  0.40575  0.04911  0.25320  1.0000
  H   H5        1.0  0.80208  0.16351  0.93171  1.0000
  H   H6        1.0  0.19792  0.83649  0.06829  1.0000
  H   H7        1.0  0.91782  0.13134  0.17325  1.0000
  H   H8        1.0  0.08218  0.86865  0.82675  1.0000
  H   H9        1.0  0.97031  0.34535  0.80880  1.0000
  H   H10       1.0  0.02968  0.65465  0.19121  1.0000
  H   H11       1.0  0.69989  0.33634  0.81173  1.0000
  H   H12       1.0  0.30010  0.66366  0.18827  1.0000
  H   H13       1.0  0.86535  0.59173  0.93277  1.0000
  H   H14       1.0  0.13464  0.40828  0.06723  1.0000
  H   H15       1.0  0.13219  0.60263  0.92624  1.0000
  H   H16       1.0  0.86781  0.39738  0.07377  1.0000
  H   H17       1.0  0.63551  0.73989  0.60962  1.0000
  H   H18       1.0  0.36450  0.26011  0.39038  1.0000
  H   H19       1.0  0.24170  0.76547  0.55706  1.0000
  H   H20       1.0  0.75830  0.23453  0.44294  1.0000
  H   H21       1.0  0.86110  0.86204  0.60755  1.0000
  H   H22       1.0  0.13890  0.13796  0.39245  1.0000
  H   H23       1.0  0.10789  0.86188  0.46276  1.0000
  H   H24       1.0  0.89211  0.13812  0.53724  1.0000
  C   C1        1.0  0.83494  0.87227  0.26720  1.0000
  C   C2        1.0  0.16506  0.12773  0.73280  1.0000
  C   C3        1.0  0.76165  0.89946  0.12457  1.0000
  C   C4        1.0  0.23835  0.10055  0.87542  1.0000
  C   C5        1.0  0.63958  0.77996  0.02066  1.0000
  C   C6        1.0  0.36043  0.22003  0.97934  1.0000
  C   C7        1.0  0.58034  0.79763  0.88459  1.0000
  C   C8        1.0  0.41966  0.20237  0.11541  1.0000
  C   C9        1.0  0.63907  0.93655  0.85272  1.0000
  C   C10       1.0  0.36094  0.06345  0.14728  1.0000
  C   C11       1.0  0.75739  0.05598  0.95670  1.0000
  C   C12       1.0  0.24261  0.94402  0.04330  1.0000
  C   C13       1.0  0.82130  0.03807  0.09216  1.0000
  C   C14       1.0  0.17870  0.96193  0.90784  1.0000
  C   C15       1.0  0.45983  0.66715  0.77761  1.0000
  C   C16       1.0  0.54018  0.33285  0.22239  1.0000
  C   C17       1.0  0.81409  0.46257  0.67548  1.0000
  C   C18       1.0  0.18591  0.53743  0.32452  1.0000
  C   C19       1.0  0.86070  0.40756  0.80816  1.0000
  C   C20       1.0  0.13930  0.59245  0.19185  1.0000
  C   C21       1.0  0.97509  0.52948  0.93332  1.0000
  C   C22       1.0  0.02490  0.47053  0.06669  1.0000
  O   O1        1.0  0.72363  0.75077  0.28884  1.0000
  O   O2        1.0  0.27637  0.24923  0.71116  1.0000
  O   O3        1.0  0.00653  0.96459  0.35713  1.0000
  O   O4        1.0  0.99347  0.03541  0.64287  1.0000
  O   O5        1.0  0.41057  0.54273  0.80829  1.0000
  O   O6        1.0  0.58944  0.45727  0.19171  1.0000
  O   O7        1.0  0.40793  0.68017  0.65007  1.0000
  O   O8        1.0  0.59207  0.31983  0.34993  1.0000
  O   O9        1.0  0.62129  0.46601  0.61210  1.0000
  O   O10       1.0  0.37870  0.53398  0.38790  1.0000
  O   O11       1.0  0.96873  0.51001  0.62372  1.0000
  O   O12       1.0  0.03127  0.48999  0.37628  1.0000
  O   O13       1.0  0.77218  0.75638  0.58480  1.0000
  O   O14       1.0  0.22782  0.24362  0.41519  1.0000
  O   O15       1.0  0.11024  0.76520  0.48181  1.0000
  O   O16       1.0  0.88976  0.23480  0.51819  1.0000
