data_image0
_chemical_formula_structural       AgH19C20N4O4
_chemical_formula_sum              "Ag1 H19 C20 N4 O4"
_cell_length_a       6.47565
_cell_length_b       7.91636
_cell_length_c       9.0136
_cell_angle_alpha    83.9099
_cell_angle_beta     83.1717
_cell_angle_gamma    88.7478

_space_group_name_H-M_alt    "P 1"
_space_group_IT_number       1

loop_
  _space_group_symop_operation_xyz
  'x, y, z'

loop_
  _atom_site_type_symbol
  _atom_site_label
  _atom_site_symmetry_multiplicity
  _atom_site_fract_x
  _atom_site_fract_y
  _atom_site_fract_z
  _atom_site_occupancy
  Ag  Ag1       1.0  0.50002  0.50002  0.49996  1.0000
  H   H1        1.0  0.49969  0.00036  0.99978  1.0000
  H   H2        1.0  0.84889  0.71167  0.25459  1.0000
  H   H3        1.0  0.15106  0.28826  0.74538  1.0000
  H   H4        1.0  0.25327  0.72517  0.74486  1.0000
  H   H5        1.0  0.74674  0.27483  0.25513  1.0000
  H   H6        1.0  0.95383  0.87847  0.87666  1.0000
  H   H7        1.0  0.04613  0.12149  0.12335  1.0000
  H   H8        1.0  0.64289  0.96076  0.75092  1.0000
  H   H9        1.0  0.35711  0.03920  0.24908  1.0000
  H   H10       1.0  0.61910  0.89788  0.48772  1.0000
  H   H11       1.0  0.38091  0.10211  0.51227  1.0000
  H   H12       1.0  0.10210  0.51332  0.12996  1.0000
  H   H13       1.0  0.89790  0.48669  0.87003  1.0000
  H   H14       1.0  0.33681  0.46075  0.20730  1.0000
  H   H15       1.0  0.66320  0.53923  0.79272  1.0000
  H   H16       1.0  0.37680  0.63577  0.95495  1.0000
  H   H17       1.0  0.62328  0.36425  0.04507  1.0000
  H   H18       1.0  0.24737  0.80860  0.03688  1.0000
  H   H19       1.0  0.75268  0.19137  0.96317  1.0000
  C   C1        1.0  0.10126  0.72615  0.54318  1.0000
  C   C2        1.0  0.89874  0.27385  0.45681  1.0000
  C   C3        1.0  0.11625  0.76333  0.68965  1.0000
  C   C4        1.0  0.88375  0.23667  0.31035  1.0000
  C   C5        1.0  0.94880  0.84797  0.76207  1.0000
  C   C6        1.0  0.05119  0.15203  0.23793  1.0000
  C   C7        1.0  0.77052  0.89446  0.69084  1.0000
  C   C8        1.0  0.22948  0.10553  0.30915  1.0000
  C   C9        1.0  0.75469  0.85937  0.54429  1.0000
  C   C10       1.0  0.24531  0.14063  0.45571  1.0000
  C   C11       1.0  0.92279  0.77537  0.47171  1.0000
  C   C12       1.0  0.07720  0.22462  0.52827  1.0000
  C   C13       1.0  0.14600  0.64022  0.31809  1.0000
  C   C14       1.0  0.85398  0.35978  0.68190  1.0000
  C   C15       1.0  0.23125  0.56616  0.17835  1.0000
  C   C16       1.0  0.76876  0.43383  0.82165  1.0000
  C   C17       1.0  0.34569  0.69650  0.05991  1.0000
  C   C18       1.0  0.65440  0.30348  0.94014  1.0000
  C   C19       1.0  0.55468  0.74833  0.10097  1.0000
  C   C20       1.0  0.44544  0.25169  0.89910  1.0000
  N   N1        1.0  0.23798  0.64146  0.44394  1.0000
  N   N2        1.0  0.76201  0.35855  0.55605  1.0000
  N   N3        1.0  0.95855  0.72054  0.33052  1.0000
  N   N4        1.0  0.04144  0.27945  0.66947  1.0000
  O   O1        1.0  0.61248  0.90523  0.06985  1.0000
  O   O2        1.0  0.38756  0.09472  0.93026  1.0000
  O   O3        1.0  0.66756  0.63759  0.16247  1.0000
  O   O4        1.0  0.33248  0.36228  0.83759  1.0000
