data_image0
_chemical_formula_structural       Co2H16C16S4N12
_chemical_formula_sum              "Co2 H16 C16 S4 N12"
_cell_length_a       5.47969
_cell_length_b       7.56582
_cell_length_c       13.4134
_cell_angle_alpha    102.165
_cell_angle_beta     89.9988
_cell_angle_gamma    90.0009

_space_group_name_H-M_alt    "P 1"
_space_group_IT_number       1

loop_
  _space_group_symop_operation_xyz
  'x, y, z'

loop_
  _atom_site_type_symbol
  _atom_site_label
  _atom_site_symmetry_multiplicity
  _atom_site_fract_x
  _atom_site_fract_y
  _atom_site_fract_z
  _atom_site_occupancy
  Co  Co1       1.0  0.00002  0.49998  0.50000  1.0000
  Co  Co2       1.0  0.50000  0.00002  0.00000  1.0000
  H   H1        1.0  0.27606  0.15868  0.55157  1.0000
  H   H2        1.0  0.77608  0.34130  0.94843  1.0000
  H   H3        1.0  0.72397  0.84129  0.44844  1.0000
  H   H4        1.0  0.22393  0.65870  0.05157  1.0000
  H   H5        1.0  0.57054  0.36614  0.63120  1.0000
  H   H6        1.0  0.07056  0.13387  0.86879  1.0000
  H   H7        1.0  0.42945  0.63382  0.36880  1.0000
  H   H8        1.0  0.92945  0.86617  0.13121  1.0000
  H   H9        1.0  0.63734  0.05553  0.70721  1.0000
  H   H10       1.0  0.13738  0.44448  0.79279  1.0000
  H   H11       1.0  0.36264  0.94443  0.29278  1.0000
  H   H12       1.0  0.86263  0.55556  0.20721  1.0000
  H   H13       1.0  0.07063  0.94871  0.65011  1.0000
  H   H14       1.0  0.57068  0.55129  0.84989  1.0000
  H   H15       1.0  0.92936  0.05126  0.34989  1.0000
  H   H16       1.0  0.42935  0.44873  0.15010  1.0000
  C   C1        1.0  0.09435  0.17676  0.58346  1.0000
  C   C2        1.0  0.59438  0.32325  0.91655  1.0000
  C   C3        1.0  0.90564  0.82319  0.41654  1.0000
  C   C4        1.0  0.40562  0.67679  0.08346  1.0000
  C   C5        1.0  0.72686  0.27761  0.62502  1.0000
  C   C6        1.0  0.22688  0.22240  0.87499  1.0000
  C   C7        1.0  0.27313  0.72236  0.37498  1.0000
  C   C8        1.0  0.77312  0.77763  0.12502  1.0000
  C   C9        1.0  0.75679  0.12408  0.66323  1.0000
  C   C10       1.0  0.25682  0.37593  0.83676  1.0000
  C   C11       1.0  0.24318  0.87592  0.33677  1.0000
  C   C12       1.0  0.74320  0.62409  0.16323  1.0000
  C   C13       1.0  0.46326  0.34073  0.39901  1.0000
  C   C14       1.0  0.96325  0.15927  0.10098  1.0000
  C   C15       1.0  0.53673  0.65925  0.60099  1.0000
  C   C16       1.0  0.03669  0.84076  0.89902  1.0000
  S   S1        1.0  0.72894  0.31134  0.34360  1.0000
  S   S2        1.0  0.22892  0.18863  0.15639  1.0000
  S   S3        1.0  0.27109  0.68864  0.65639  1.0000
  S   S4        1.0  0.77110  0.81140  0.84361  1.0000
  N   N1        1.0  0.93882  0.30927  0.57486  1.0000
  N   N2        1.0  0.43885  0.19074  0.92514  1.0000
  N   N3        1.0  0.06118  0.69070  0.42513  1.0000
  N   N4        1.0  0.56115  0.80928  0.07486  1.0000
  N   N5        1.0  0.98914  0.06383  0.63637  1.0000
  N   N6        1.0  0.48916  0.43618  0.86363  1.0000
  N   N7        1.0  0.01086  0.93614  0.36363  1.0000
  N   N8        1.0  0.51085  0.56385  0.13637  1.0000
  N   N9        1.0  0.27262  0.37753  0.43944  1.0000
  N   N10       1.0  0.77261  0.12246  0.06056  1.0000
  N   N11       1.0  0.72736  0.62245  0.56057  1.0000
  N   N12       1.0  0.22736  0.87756  0.93944  1.0000
