data_image0
_chemical_formula_structural       In2H50C22S4N4
_chemical_formula_sum              "In2 H50 C22 S4 N4"
_cell_length_a       8.45959
_cell_length_b       9.49289
_cell_length_c       10.2732
_cell_angle_alpha    77.5661
_cell_angle_beta     69.7066
_cell_angle_gamma    86.7441

_space_group_name_H-M_alt    "P 1"
_space_group_IT_number       1

loop_
  _space_group_symop_operation_xyz
  'x, y, z'

loop_
  _atom_site_type_symbol
  _atom_site_label
  _atom_site_symmetry_multiplicity
  _atom_site_fract_x
  _atom_site_fract_y
  _atom_site_fract_z
  _atom_site_occupancy
  In  In1       1.0  0.21469  0.15200  0.34079  1.0000
  In  In2       1.0  0.78530  0.84801  0.65921  1.0000
  H   H1        1.0  0.99307  0.41619  0.90482  1.0000
  H   H2        1.0  0.00695  0.58379  0.09516  1.0000
  H   H3        1.0  0.97590  0.28456  0.80814  1.0000
  H   H4        1.0  0.02411  0.71541  0.19185  1.0000
  H   H5        1.0  0.16558  0.30185  0.84297  1.0000
  H   H6        1.0  0.83443  0.69813  0.15703  1.0000
  H   H7        1.0  0.78407  0.03066  0.12169  1.0000
  H   H8        1.0  0.21592  0.96934  0.87831  1.0000
  H   H9        1.0  0.81200  0.09541  0.93900  1.0000
  H   H10       1.0  0.18800  0.90459  0.06100  1.0000
  H   H11       1.0  0.66629  0.32378  0.99342  1.0000
  H   H12       1.0  0.33371  0.67622  0.00657  1.0000
  H   H13       1.0  0.53785  0.16979  0.08870  1.0000
  H   H14       1.0  0.46215  0.83022  0.91130  1.0000
  H   H15       1.0  0.65069  0.17499  0.29346  1.0000
  H   H16       1.0  0.34930  0.82502  0.70654  1.0000
  H   H17       1.0  0.73191  0.34950  0.20185  1.0000
  H   H18       1.0  0.26809  0.65050  0.79815  1.0000
  H   H19       1.0  0.31944  0.51331  0.26692  1.0000
  H   H20       1.0  0.68056  0.48669  0.73307  1.0000
  H   H21       1.0  0.43389  0.45747  0.10650  1.0000
  H   H22       1.0  0.56611  0.54253  0.89349  1.0000
  H   H23       1.0  0.54213  0.54810  0.18726  1.0000
  H   H24       1.0  0.45787  0.45191  0.81273  1.0000
  H   H25       1.0  0.47261  0.23898  0.49497  1.0000
  H   H26       1.0  0.52738  0.76103  0.50503  1.0000
  H   H27       1.0  0.34356  0.39363  0.48441  1.0000
  H   H28       1.0  0.65644  0.60638  0.51558  1.0000
  H   H29       1.0  0.56795  0.41440  0.42084  1.0000
  H   H30       1.0  0.43204  0.58561  0.57915  1.0000
  H   H31       1.0  0.94970  0.18587  0.56789  1.0000
  H   H32       1.0  0.05030  0.81413  0.43211  1.0000
  H   H33       1.0  0.09679  0.32313  0.53855  1.0000
  H   H34       1.0  0.90321  0.67687  0.46145  1.0000
  H   H35       1.0  0.82629  0.42280  0.49597  1.0000
  H   H36       1.0  0.17372  0.57721  0.50403  1.0000
  H   H37       1.0  0.86932  0.32559  0.35861  1.0000
  H   H38       1.0  0.13068  0.67442  0.64139  1.0000
  H   H39       1.0  0.00574  0.46841  0.34028  1.0000
  H   H40       1.0  0.99426  0.53160  0.65972  1.0000
  H   H41       1.0  0.48604  0.99622  0.36998  1.0000
  H   H42       1.0  0.51395  0.00378  0.63004  1.0000
  H   H43       1.0  0.29726  0.89566  0.46632  1.0000
  H   H44       1.0  0.70273  0.10435  0.53370  1.0000
  H   H45       1.0  0.48620  0.77949  0.26386  1.0000
  H   H46       1.0  0.51380  0.22051  0.73616  1.0000
  H   H47       1.0  0.47265  0.93618  0.13980  1.0000
  H   H48       1.0  0.52735  0.06382  0.86022  1.0000
  H   H49       1.0  0.28954  0.83025  0.24430  1.0000
  H   H50       1.0  0.71045  0.16975  0.75572  1.0000
  C   C1        1.0  0.03827  0.16992  0.11418  1.0000
  C   C2        1.0  0.96172  0.83008  0.88582  1.0000
  C   C3        1.0  0.02771  0.30679  0.88597  1.0000
  C   C4        1.0  0.97230  0.69319  0.11402  1.0000
  C   C5        1.0  0.80090  0.12820  0.03806  1.0000
  C   C6        1.0  0.19910  0.87180  0.96194  1.0000
  C   C7        1.0  0.65138  0.22800  0.07925  1.0000
  C   C8        1.0  0.34862  0.77200  0.92075  1.0000
  C   C9        1.0  0.63140  0.27048  0.21891  1.0000
  C   C10       1.0  0.36860  0.72952  0.78108  1.0000
  C   C11       1.0  0.43971  0.46979  0.20827  1.0000
  C   C12       1.0  0.56030  0.53022  0.79172  1.0000
  C   C13       1.0  0.46224  0.34507  0.43037  1.0000
  C   C14       1.0  0.53776  0.65494  0.56962  1.0000
  C   C15       1.0  0.03172  0.27051  0.48563  1.0000
  C   C16       1.0  0.96828  0.72949  0.51437  1.0000
  C   C17       1.0  0.92839  0.37734  0.41660  1.0000
  C   C18       1.0  0.07161  0.62266  0.58339  1.0000
  C   C19       1.0  0.36907  0.96067  0.36164  1.0000
  C   C20       1.0  0.63091  0.03934  0.63838  1.0000
  C   C21       1.0  0.40648  0.87277  0.24674  1.0000
  C   C22       1.0  0.59352  0.12723  0.75327  1.0000
  S   S1        1.0  0.96538  0.03905  0.26555  1.0000
  S   S2        1.0  0.03461  0.96095  0.73446  1.0000
  S   S3        1.0  0.21673  0.27036  0.08359  1.0000
  S   S4        1.0  0.78327  0.72963  0.91640  1.0000
  N   N1        1.0  0.96209  0.19668  0.01589  1.0000
  N   N2        1.0  0.03791  0.80330  0.98410  1.0000
  N   N3        1.0  0.46621  0.32923  0.29009  1.0000
  N   N4        1.0  0.53379  0.67077  0.70990  1.0000
