data_image0
_chemical_formula_structural       K2H6C6N20O4
_chemical_formula_sum              "K2 H6 C6 N20 O4"
_cell_length_a       5.46234
_cell_length_b       7.79589
_cell_length_c       11.5114
_cell_angle_alpha    96.2093
_cell_angle_beta     103.187
_cell_angle_gamma    108.946

_space_group_name_H-M_alt    "P 1"
_space_group_IT_number       1

loop_
  _space_group_symop_operation_xyz
  'x, y, z'

loop_
  _atom_site_type_symbol
  _atom_site_label
  _atom_site_symmetry_multiplicity
  _atom_site_fract_x
  _atom_site_fract_y
  _atom_site_fract_z
  _atom_site_occupancy
  K   K1        1.0  0.84540  0.65898  0.07851  1.0000
  K   K2        1.0  0.15459  0.34102  0.92149  1.0000
  H   H1        1.0  0.56067  0.99174  0.39363  1.0000
  H   H2        1.0  0.43933  0.00826  0.60637  1.0000
  H   H3        1.0  0.44530  0.69449  0.19539  1.0000
  H   H4        1.0  0.55470  0.30551  0.80461  1.0000
  H   H5        1.0  0.32426  0.48935  0.21529  1.0000
  H   H6        1.0  0.67574  0.51065  0.78471  1.0000
  C   C1        1.0  0.28368  0.27577  0.41784  1.0000
  C   C2        1.0  0.71632  0.72423  0.58215  1.0000
  C   C3        1.0  0.47949  0.19552  0.29520  1.0000
  C   C4        1.0  0.52052  0.80448  0.70480  1.0000
  C   C5        1.0  0.60397  0.17352  0.20025  1.0000
  C   C6        1.0  0.39604  0.82648  0.79975  1.0000
  N   N1        1.0  0.47830  0.09288  0.38274  1.0000
  N   N2        1.0  0.52170  0.90712  0.61727  1.0000
  N   N3        1.0  0.35503  0.14242  0.46300  1.0000
  N   N4        1.0  0.64496  0.85758  0.53700  1.0000
  N   N5        1.0  0.35537  0.31473  0.31527  1.0000
  N   N6        1.0  0.64463  0.68527  0.68473  1.0000
  N   N7        1.0  0.14412  0.37066  0.46778  1.0000
  N   N8        1.0  0.85588  0.62934  0.53222  1.0000
  N   N9        1.0  0.08531  0.33188  0.56189  1.0000
  N   N10       1.0  0.91469  0.66812  0.43811  1.0000
  N   N11       1.0  0.01475  0.31409  0.64744  1.0000
  N   N12       1.0  0.98525  0.68591  0.35256  1.0000
  N   N13       1.0  0.70811  0.03749  0.18813  1.0000
  N   N14       1.0  0.29189  0.96252  0.81187  1.0000
  N   N15       1.0  0.81575  0.05260  0.09386  1.0000
  N   N16       1.0  0.18425  0.94740  0.90614  1.0000
  N   N17       1.0  0.77704  0.19458  0.05050  1.0000
  N   N18       1.0  0.22296  0.80542  0.94950  1.0000
  N   N19       1.0  0.64780  0.27249  0.11355  1.0000
  N   N20       1.0  0.35221  0.72751  0.88645  1.0000
  O   O1        1.0  0.71112  0.91137  0.25342  1.0000
  O   O2        1.0  0.28888  0.08863  0.74658  1.0000
  O   O3        1.0  0.31262  0.56945  0.15458  1.0000
  O   O4        1.0  0.68738  0.43055  0.84542  1.0000
