data_image0
_chemical_formula_structural       P2H26Pb2C36S2N4O12
_chemical_formula_sum              "P2 H26 Pb2 C36 S2 N4 O12"
_cell_length_a       7.2026
_cell_length_b       11.1453
_cell_length_c       11.3178
_cell_angle_alpha    89.3628
_cell_angle_beta     79.3514
_cell_angle_gamma    84.7123

_space_group_name_H-M_alt    "P 1"
_space_group_IT_number       1

loop_
  _space_group_symop_operation_xyz
  'x, y, z'

loop_
  _atom_site_type_symbol
  _atom_site_label
  _atom_site_symmetry_multiplicity
  _atom_site_fract_x
  _atom_site_fract_y
  _atom_site_fract_z
  _atom_site_occupancy
  P   P1        1.0  0.25626  0.17519  0.05630  1.0000
  P   P2        1.0  0.74374  0.82480  0.94370  1.0000
  H   H1        1.0  0.36152  0.56471  0.97802  1.0000
  H   H2        1.0  0.63848  0.43530  0.02197  1.0000
  H   H3        1.0  0.55437  0.40579  0.83903  1.0000
  H   H4        1.0  0.44564  0.59422  0.16096  1.0000
  H   H5        1.0  0.65111  0.45432  0.62284  1.0000
  H   H6        1.0  0.34889  0.54569  0.37716  1.0000
  H   H7        1.0  0.10900  0.08900  0.80585  1.0000
  H   H8        1.0  0.89099  0.91100  0.19416  1.0000
  H   H9        1.0  0.11445  0.13970  0.59104  1.0000
  H   H10       1.0  0.88553  0.86031  0.40897  1.0000
  H   H11       1.0  0.28805  0.99005  0.43147  1.0000
  H   H12       1.0  0.71195  0.00996  0.56853  1.0000
  H   H13       1.0  0.48807  0.79372  0.38327  1.0000
  H   H14       1.0  0.51192  0.20629  0.61672  1.0000
  H   H15       1.0  0.62516  0.60215  0.45265  1.0000
  H   H16       1.0  0.37483  0.39786  0.54735  1.0000
  H   H17       1.0  0.90709  0.50285  0.43304  1.0000
  H   H18       1.0  0.09292  0.49714  0.56697  1.0000
  H   H19       1.0  0.97357  0.28688  0.47704  1.0000
  H   H20       1.0  0.02643  0.71311  0.52296  1.0000
  H   H21       1.0  0.13140  0.14511  0.31049  1.0000
  H   H22       1.0  0.86860  0.85488  0.68951  1.0000
  H   H23       1.0  0.13322  0.43756  0.05788  1.0000
  H   H24       1.0  0.86679  0.56244  0.94213  1.0000
  H   H25       1.0  0.29172  0.27838  0.88198  1.0000
  H   H26       1.0  0.70829  0.72162  0.11802  1.0000
  Pb  Pb1       1.0  0.25006  0.87105  0.98935  1.0000
  Pb  Pb2       1.0  0.74995  0.12894  0.01065  1.0000
  C   C1        1.0  0.40736  0.58212  0.88276  1.0000
  C   C2        1.0  0.59263  0.41789  0.11723  1.0000
  C   C3        1.0  0.51318  0.49376  0.80458  1.0000
  C   C4        1.0  0.48683  0.50625  0.19542  1.0000
  C   C5        1.0  0.56536  0.52093  0.68446  1.0000
  C   C6        1.0  0.43464  0.47908  0.31554  1.0000
  C   C7        1.0  0.50524  0.63473  0.64210  1.0000
  C   C8        1.0  0.49476  0.36528  0.35789  1.0000
  C   C9        1.0  0.40097  0.71926  0.72807  1.0000
  C   C10       1.0  0.59903  0.28075  0.27192  1.0000
  C   C11       1.0  0.33529  0.83623  0.68842  1.0000
  C   C12       1.0  0.66471  0.16378  0.31157  1.0000
  C   C13       1.0  0.17309  0.02424  0.73529  1.0000
  C   C14       1.0  0.82690  0.97576  0.26471  1.0000
  C   C15       1.0  0.18024  0.05264  0.61333  1.0000
  C   C16       1.0  0.81975  0.94736  0.38667  1.0000
  C   C17       1.0  0.27496  0.97066  0.52721  1.0000
  C   C18       1.0  0.72504  0.02934  0.47278  1.0000
  C   C19       1.0  0.35907  0.86002  0.56304  1.0000
  C   C20       1.0  0.64093  0.13999  0.43696  1.0000
  C   C21       1.0  0.46563  0.77302  0.47893  1.0000
  C   C22       1.0  0.53436  0.22699  0.52107  1.0000
  C   C23       1.0  0.54068  0.66612  0.51760  1.0000
  C   C24       1.0  0.45931  0.33389  0.48239  1.0000
  C   C25       1.0  0.96778  0.43989  0.36023  1.0000
  C   C26       1.0  0.03223  0.56010  0.63978  1.0000
  C   C27       1.0  0.00695  0.31824  0.38459  1.0000
  C   C28       1.0  0.99305  0.68175  0.61542  1.0000
  C   C29       1.0  0.09424  0.23956  0.29150  1.0000
  C   C30       1.0  0.90576  0.76043  0.70850  1.0000
  C   C31       1.0  0.13759  0.28096  0.17289  1.0000
  C   C32       1.0  0.86240  0.71904  0.82711  1.0000
  C   C33       1.0  0.09644  0.40329  0.14875  1.0000
  C   C34       1.0  0.90357  0.59671  0.85125  1.0000
  C   C35       1.0  0.01560  0.48238  0.24283  1.0000
  C   C36       1.0  0.98441  0.51761  0.75718  1.0000
  S   S1        1.0  0.99550  0.64195  0.21955  1.0000
  S   S2        1.0  0.00451  0.35805  0.78046  1.0000
  N   N1        1.0  0.35584  0.69202  0.84612  1.0000
  N   N2        1.0  0.64415  0.30799  0.15388  1.0000
  N   N3        1.0  0.24628  0.91929  0.77166  1.0000
  N   N4        1.0  0.75372  0.08071  0.22833  1.0000
  O   O1        1.0  0.10976  0.10412  0.01213  1.0000
  O   O2        1.0  0.89024  0.89588  0.98786  1.0000
  O   O3        1.0  0.40816  0.09667  0.10535  1.0000
  O   O4        1.0  0.59184  0.90333  0.89465  1.0000
  O   O5        1.0  0.36079  0.25487  0.95104  1.0000
  O   O6        1.0  0.63921  0.74513  0.04896  1.0000
  O   O7        1.0  0.78970  0.68072  0.23270  1.0000
  O   O8        1.0  0.21031  0.31927  0.76730  1.0000
  O   O9        1.0  0.09799  0.66060  0.09659  1.0000
  O   O10       1.0  0.90201  0.33939  0.90341  1.0000
  O   O11       1.0  0.07976  0.69318  0.31354  1.0000
  O   O12       1.0  0.92025  0.30682  0.68645  1.0000
