data_image0
_chemical_formula_structural       Zn4H20C20S4N4O12
_chemical_formula_sum              "Zn4 H20 C20 S4 N4 O12"
_cell_length_a       4.92025
_cell_length_b       8.49068
_cell_length_c       17.1312
_cell_angle_alpha    90.0005
_cell_angle_beta     97.3424
_cell_angle_gamma    89.9998

_space_group_name_H-M_alt    "P 1"
_space_group_IT_number       1

loop_
  _space_group_symop_operation_xyz
  'x, y, z'

loop_
  _atom_site_type_symbol
  _atom_site_label
  _atom_site_symmetry_multiplicity
  _atom_site_fract_x
  _atom_site_fract_y
  _atom_site_fract_z
  _atom_site_occupancy
  Zn  Zn1       1.0  0.20387  0.43145  0.41577  1.0000
  Zn  Zn2       1.0  0.79613  0.93145  0.08423  1.0000
  Zn  Zn3       1.0  0.79613  0.56855  0.58423  1.0000
  Zn  Zn4       1.0  0.20388  0.06855  0.91577  1.0000
  H   H1        1.0  0.54532  0.27189  0.30602  1.0000
  H   H2        1.0  0.45469  0.77189  0.19398  1.0000
  H   H3        1.0  0.45468  0.72811  0.69397  1.0000
  H   H4        1.0  0.54531  0.22812  0.80602  1.0000
  H   H5        1.0  0.89650  0.58578  0.27775  1.0000
  H   H6        1.0  0.10350  0.08577  0.22225  1.0000
  H   H7        1.0  0.10350  0.41422  0.72225  1.0000
  H   H8        1.0  0.89651  0.91422  0.77775  1.0000
  H   H9        1.0  0.88207  0.58503  0.13058  1.0000
  H   H10       1.0  0.11794  0.08503  0.36942  1.0000
  H   H11       1.0  0.11793  0.41497  0.86942  1.0000
  H   H12       1.0  0.88206  0.91497  0.63059  1.0000
  H   H13       1.0  0.22039  0.41441  0.07067  1.0000
  H   H14       1.0  0.77961  0.91442  0.42933  1.0000
  H   H15       1.0  0.77961  0.58559  0.92933  1.0000
  H   H16       1.0  0.22038  0.08558  0.57067  1.0000
  H   H17       1.0  0.55877  0.25808  0.15921  1.0000
  H   H18       1.0  0.44123  0.75809  0.34079  1.0000
  H   H19       1.0  0.44122  0.74191  0.84079  1.0000
  H   H20       1.0  0.55877  0.24191  0.65921  1.0000
  C   C1        1.0  0.40197  0.33797  0.26460  1.0000
  C   C2        1.0  0.59801  0.83797  0.23540  1.0000
  C   C3        1.0  0.59800  0.66203  0.73540  1.0000
  C   C4        1.0  0.40199  0.16202  0.76460  1.0000
  C   C5        1.0  0.03874  0.51483  0.24877  1.0000
  C   C6        1.0  0.96126  0.01484  0.25123  1.0000
  C   C7        1.0  0.96126  0.48517  0.75122  1.0000
  C   C8        1.0  0.03875  0.98516  0.74877  1.0000
  C   C9        1.0  0.03324  0.51452  0.16740  1.0000
  C   C10       1.0  0.96676  0.01453  0.33260  1.0000
  C   C11       1.0  0.96676  0.48548  0.83260  1.0000
  C   C12       1.0  0.03325  0.98547  0.66740  1.0000
  C   C13       1.0  0.22057  0.42012  0.13424  1.0000
  C   C14       1.0  0.77943  0.92013  0.36576  1.0000
  C   C15       1.0  0.77942  0.57988  0.86576  1.0000
  C   C16       1.0  0.22058  0.07987  0.63424  1.0000
  C   C17       1.0  0.40918  0.33143  0.18381  1.0000
  C   C18       1.0  0.59082  0.83144  0.31619  1.0000
  C   C19       1.0  0.59081  0.66856  0.81618  1.0000
  C   C20       1.0  0.40919  0.16856  0.68382  1.0000
  S   S1        1.0  0.27370  0.74066  0.51510  1.0000
  S   S2        1.0  0.72630  0.24066  0.98490  1.0000
  S   S3        1.0  0.72630  0.25934  0.48490  1.0000
  S   S4        1.0  0.27370  0.75934  0.01510  1.0000
  N   N1        1.0  0.21859  0.42749  0.29664  1.0000
  N   N2        1.0  0.78140  0.92749  0.20336  1.0000
  N   N3        1.0  0.78140  0.57251  0.70335  1.0000
  N   N4        1.0  0.21861  0.07251  0.79665  1.0000
  O   O1        1.0  0.23079  0.65902  0.43399  1.0000
  O   O2        1.0  0.76921  0.15902  0.06601  1.0000
  O   O3        1.0  0.76921  0.34098  0.56601  1.0000
  O   O4        1.0  0.23079  0.84098  0.93399  1.0000
  O   O5        1.0  0.58793  0.75098  0.53882  1.0000
  O   O6        1.0  0.41207  0.25098  0.96118  1.0000
  O   O7        1.0  0.41207  0.24903  0.46118  1.0000
  O   O8        1.0  0.58793  0.74903  0.03882  1.0000
  O   O9        1.0  0.18784  0.61560  0.57345  1.0000
  O   O10       1.0  0.81216  0.11560  0.92655  1.0000
  O   O11       1.0  0.81216  0.38440  0.42655  1.0000
  O   O12       1.0  0.18784  0.88440  0.07345  1.0000
