data_image0
_chemical_formula_structural       Cu4H20C22Se2I4N4
_chemical_formula_sum              "Cu4 H20 C22 Se2 I4 N4"
_cell_length_a       8.30154
_cell_length_b       9.37199
_cell_length_c       9.53505
_cell_angle_alpha    105.16
_cell_angle_beta     90.0002
_cell_angle_gamma    90

_space_group_name_H-M_alt    "P 1"
_space_group_IT_number       1

loop_
  _space_group_symop_operation_xyz
  'x, y, z'

loop_
  _atom_site_type_symbol
  _atom_site_label
  _atom_site_symmetry_multiplicity
  _atom_site_fract_x
  _atom_site_fract_y
  _atom_site_fract_z
  _atom_site_occupancy
  Cu  Cu1       1.0  0.54539  0.69405  0.48995  1.0000
  Cu  Cu2       1.0  0.04539  0.30595  0.51005  1.0000
  Cu  Cu3       1.0  0.17545  0.46006  0.36019  1.0000
  Cu  Cu4       1.0  0.67545  0.53994  0.63981  1.0000
  H   H1        1.0  0.56481  0.07015  0.19557  1.0000
  H   H2        1.0  0.06483  0.92985  0.80443  1.0000
  H   H3        1.0  0.80997  0.96504  0.04950  1.0000
  H   H4        1.0  0.30998  0.03498  0.95051  1.0000
  H   H5        1.0  0.95413  0.75361  0.10960  1.0000
  H   H6        1.0  0.45413  0.24641  0.89040  1.0000
  H   H7        1.0  0.84780  0.65431  0.31103  1.0000
  H   H8        1.0  0.34780  0.34570  0.68897  1.0000
  H   H9        1.0  0.32091  0.89013  0.14262  1.0000
  H   H10       1.0  0.82090  0.10986  0.85738  1.0000
  H   H11       1.0  0.25588  0.75112  0.88755  1.0000
  H   H12       1.0  0.75588  0.24887  0.11244  1.0000
  H   H13       1.0  0.12741  0.50107  0.84419  1.0000
  H   H14       1.0  0.62742  0.49893  0.15581  1.0000
  H   H15       1.0  0.09731  0.38899  0.05512  1.0000
  H   H16       1.0  0.59732  0.61100  0.94488  1.0000
  H   H17       1.0  0.35972  0.04901  0.36713  1.0000
  H   H18       1.0  0.85974  0.95099  0.63287  1.0000
  H   H19       1.0  0.45956  0.02183  0.52435  1.0000
  H   H20       1.0  0.95957  0.97817  0.47566  1.0000
  C   C1        1.0  0.57504  0.91269  0.32391  1.0000
  C   C2        1.0  0.07505  0.08731  0.67609  1.0000
  C   C3        1.0  0.62993  0.97636  0.21573  1.0000
  C   C4        1.0  0.12995  0.02364  0.78428  1.0000
  C   C5        1.0  0.76706  0.91941  0.13645  1.0000
  C   C6        1.0  0.26708  0.08060  0.86356  1.0000
  C   C7        1.0  0.84757  0.80189  0.16958  1.0000
  C   C8        1.0  0.34757  0.19812  0.83043  1.0000
  C   C9        1.0  0.78790  0.74509  0.27992  1.0000
  C   C10       1.0  0.28791  0.25493  0.72008  1.0000
  C   C11       1.0  0.24784  0.70994  0.23134  1.0000
  C   C12       1.0  0.74785  0.29006  0.76866  1.0000
  C   C13       1.0  0.27457  0.77796  0.11908  1.0000
  C   C14       1.0  0.77457  0.22203  0.88091  1.0000
  C   C15       1.0  0.23460  0.70168  0.97753  1.0000
  C   C16       1.0  0.73460  0.29831  0.02247  1.0000
  C   C17       1.0  0.16606  0.56118  0.95258  1.0000
  C   C18       1.0  0.66608  0.43881  0.04742  1.0000
  C   C19       1.0  0.14660  0.49975  0.06899  1.0000
  C   C20       1.0  0.64661  0.50024  0.93101  1.0000
  C   C21       1.0  0.42772  0.96962  0.41039  1.0000
  C   C22       1.0  0.92773  0.03038  0.58962  1.0000
  Se  Se1       1.0  0.28500  0.80688  0.43316  1.0000
  Se  Se2       1.0  0.78501  0.19311  0.56684  1.0000
  I   I1        1.0  0.59022  0.81882  0.76484  1.0000
  I   I2        1.0  0.09023  0.18117  0.23516  1.0000
  I   I3        1.0  0.49186  0.41101  0.41583  1.0000
  I   I4        1.0  0.99185  0.58899  0.58417  1.0000
  N   N1        1.0  0.65273  0.79695  0.35436  1.0000
  N   N2        1.0  0.15274  0.20306  0.64564  1.0000
  N   N3        1.0  0.18863  0.57096  0.20675  1.0000
  N   N4        1.0  0.68864  0.42903  0.79325  1.0000
