data_image0
_chemical_formula_structural       Hg2H20C14S10I4O4
_chemical_formula_sum              "Hg2 H20 C14 S10 I4 O4"
_cell_length_a       4.37101
_cell_length_b       13.8005
_cell_length_c       14.7332
_cell_angle_alpha    116.739
_cell_angle_beta     93.2008
_cell_angle_gamma    93.5284

_space_group_name_H-M_alt    "P 1"
_space_group_IT_number       1

loop_
  _space_group_symop_operation_xyz
  'x, y, z'

loop_
  _atom_site_type_symbol
  _atom_site_label
  _atom_site_symmetry_multiplicity
  _atom_site_fract_x
  _atom_site_fract_y
  _atom_site_fract_z
  _atom_site_occupancy
  Hg  Hg1       1.0  0.06623  0.34572  0.17514  1.0000
  Hg  Hg2       1.0  0.93377  0.65428  0.82485  1.0000
  H   H1        1.0  0.91484  0.64081  0.30942  1.0000
  H   H2        1.0  0.08517  0.35919  0.69058  1.0000
  H   H3        1.0  0.57500  0.33512  0.67268  1.0000
  H   H4        1.0  0.42500  0.66488  0.32732  1.0000
  H   H5        1.0  0.05312  0.75712  0.12143  1.0000
  H   H6        1.0  0.94689  0.24288  0.87857  1.0000
  H   H7        1.0  0.36382  0.77163  0.21251  1.0000
  H   H8        1.0  0.63619  0.22836  0.78749  1.0000
  H   H9        1.0  0.75663  0.62103  0.15673  1.0000
  H   H10       1.0  0.24337  0.37897  0.84327  1.0000
  H   H11       1.0  0.11865  0.58022  0.11289  1.0000
  H   H12       1.0  0.88134  0.41978  0.88711  1.0000
  H   H13       1.0  0.82167  0.20125  0.51790  1.0000
  H   H14       1.0  0.17833  0.79875  0.48210  1.0000
  H   H15       1.0  0.71781  0.21015  0.40414  1.0000
  H   H16       1.0  0.28219  0.78985  0.59586  1.0000
  H   H17       1.0  0.60792  0.37883  0.54480  1.0000
  H   H18       1.0  0.39209  0.62117  0.45520  1.0000
  H   H19       1.0  0.24489  0.30611  0.48795  1.0000
  H   H20       1.0  0.75512  0.69389  0.51205  1.0000
  C   C1        1.0  0.94872  0.08170  0.16493  1.0000
  C   C2        1.0  0.05126  0.91830  0.83507  1.0000
  C   C3        1.0  0.19111  0.05600  0.31823  1.0000
  C   C4        1.0  0.80890  0.94400  0.68177  1.0000
  C   C5        1.0  0.99235  0.96406  0.26164  1.0000
  C   C6        1.0  0.00766  0.03594  0.73836  1.0000
  C   C7        1.0  0.11357  0.75279  0.19284  1.0000
  C   C8        1.0  0.88644  0.24721  0.80716  1.0000
  C   C9        1.0  0.00664  0.63924  0.17768  1.0000
  C   C10       1.0  0.99336  0.36076  0.82232  1.0000
  C   C11       1.0  0.62526  0.20548  0.47017  1.0000
  C   C12       1.0  0.37475  0.79452  0.52983  1.0000
  C   C13       1.0  0.45744  0.30535  0.53101  1.0000
  C   C14       1.0  0.54257  0.69465  0.46899  1.0000
  S   S1        1.0  0.84962  0.12864  0.08201  1.0000
  S   S2        1.0  0.15036  0.87136  0.91800  1.0000
  S   S3        1.0  0.21063  0.15147  0.27111  1.0000
  S   S4        1.0  0.78936  0.84853  0.72889  1.0000
  S   S5        1.0  0.79413  0.95908  0.15337  1.0000
  S   S6        1.0  0.20587  0.04092  0.84663  1.0000
  S   S7        1.0  0.92414  0.85851  0.29421  1.0000
  S   S8        1.0  0.07586  0.14149  0.70579  1.0000
  S   S9        1.0  0.40282  0.07479  0.42940  1.0000
  S   S10       1.0  0.59718  0.92521  0.57060  1.0000
  I   I1        1.0  0.86680  0.41990  0.36190  1.0000
  I   I2        1.0  0.13319  0.58010  0.63810  1.0000
  I   I3        1.0  0.47899  0.36773  0.05128  1.0000
  I   I4        1.0  0.52100  0.63227  0.94871  1.0000
  O   O1        1.0  0.08711  0.62060  0.26361  1.0000
  O   O2        1.0  0.91288  0.37940  0.73639  1.0000
  O   O3        1.0  0.37922  0.30982  0.62552  1.0000
  O   O4        1.0  0.62078  0.69018  0.37448  1.0000
