data_image0
_chemical_formula_structural       Hg4H32C56N8
_chemical_formula_sum              "Hg4 H32 C56 N8"
_cell_length_a       4.10518
_cell_length_b       10.8087
_cell_length_c       26.525
_cell_angle_alpha    89.9999
_cell_angle_beta     90.0002
_cell_angle_gamma    93.473

_space_group_name_H-M_alt    "P 1"
_space_group_IT_number       1

loop_
  _space_group_symop_operation_xyz
  'x, y, z'

loop_
  _atom_site_type_symbol
  _atom_site_label
  _atom_site_symmetry_multiplicity
  _atom_site_fract_x
  _atom_site_fract_y
  _atom_site_fract_z
  _atom_site_occupancy
  Hg  Hg1       1.0  0.18225  0.84435  0.38644  1.0000
  Hg  Hg2       1.0  0.81771  0.65565  0.88645  1.0000
  Hg  Hg3       1.0  0.81776  0.15566  0.61356  1.0000
  Hg  Hg4       1.0  0.18226  0.34436  0.11356  1.0000
  H   H1        1.0  0.01461  0.97517  0.90539  1.0000
  H   H2        1.0  0.98539  0.52483  0.40539  1.0000
  H   H3        1.0  0.98540  0.02482  0.09461  1.0000
  H   H4        1.0  0.01460  0.47517  0.59461  1.0000
  H   H5        1.0  0.72178  0.01814  0.98398  1.0000
  H   H6        1.0  0.27823  0.48186  0.48398  1.0000
  H   H7        1.0  0.27819  0.98187  0.01602  1.0000
  H   H8        1.0  0.72178  0.51813  0.51602  1.0000
  H   H9        1.0  0.87236  0.40896  0.95033  1.0000
  H   H10       1.0  0.12769  0.09105  0.45033  1.0000
  H   H11       1.0  0.12762  0.59104  0.04967  1.0000
  H   H12       1.0  0.87236  0.90895  0.54967  1.0000
  H   H13       1.0  0.15569  0.34947  0.87218  1.0000
  H   H14       1.0  0.84433  0.15054  0.37218  1.0000
  H   H15       1.0  0.84432  0.65053  0.12782  1.0000
  H   H16       1.0  0.15568  0.84946  0.62782  1.0000
  H   H17       1.0  0.18852  0.80516  0.26060  1.0000
  H   H18       1.0  0.81149  0.69484  0.76061  1.0000
  H   H19       1.0  0.81149  0.19485  0.73939  1.0000
  H   H20       1.0  0.18851  0.30516  0.23939  1.0000
  H   H21       1.0  0.43046  0.69319  0.18869  1.0000
  H   H22       1.0  0.56955  0.80681  0.68869  1.0000
  H   H23       1.0  0.56953  0.30682  0.81131  1.0000
  H   H24       1.0  0.43046  0.19318  0.31131  1.0000
  H   H25       1.0  0.76392  0.43021  0.29845  1.0000
  H   H26       1.0  0.23607  0.06979  0.79844  1.0000
  H   H27       1.0  0.23605  0.56979  0.70155  1.0000
  H   H28       1.0  0.76395  0.93021  0.20156  1.0000
  H   H29       1.0  0.51429  0.55471  0.36430  1.0000
  H   H30       1.0  0.48569  0.94528  0.86430  1.0000
  H   H31       1.0  0.48570  0.44529  0.63570  1.0000
  H   H32       1.0  0.51432  0.05471  0.13570  1.0000
  C   C1        1.0  0.97854  0.07114  0.91602  1.0000
  C   C2        1.0  0.02148  0.42886  0.41602  1.0000
  C   C3        1.0  0.02146  0.92886  0.08398  1.0000
  C   C4        1.0  0.97853  0.57113  0.58398  1.0000
  C   C5        1.0  0.81269  0.09487  0.96037  1.0000
  C   C6        1.0  0.18733  0.40513  0.46037  1.0000
  C   C7        1.0  0.18730  0.90513  0.03963  1.0000
  C   C8        1.0  0.81268  0.59487  0.53963  1.0000
  C   C9        1.0  0.76792  0.21839  0.97411  1.0000
  C   C10       1.0  0.23212  0.28162  0.47410  1.0000
  C   C11       1.0  0.23207  0.78162  0.02590  1.0000
  C   C12       1.0  0.76791  0.71838  0.52590  1.0000
  C   C13       1.0  0.89729  0.31151  0.94145  1.0000
  C   C14       1.0  0.10275  0.18849  0.44144  1.0000
  C   C15       1.0  0.10271  0.68849  0.05855  1.0000
  C   C16       1.0  0.89727  0.81150  0.55855  1.0000
  C   C17       1.0  0.05772  0.27748  0.89783  1.0000
  C   C18       1.0  0.94231  0.22253  0.39783  1.0000
  C   C19       1.0  0.94229  0.72252  0.10217  1.0000
  C   C20       1.0  0.05771  0.77747  0.60217  1.0000
  C   C21       1.0  0.59860  0.24904  0.01861  1.0000
  C   C22       1.0  0.40145  0.25096  0.51861  1.0000
  C   C23       1.0  0.40140  0.75096  0.98138  1.0000
  C   C24       1.0  0.59859  0.74903  0.48139  1.0000
  C   C25       1.0  0.44892  0.27940  0.05621  1.0000
  C   C26       1.0  0.55110  0.22062  0.55621  1.0000
  C   C27       1.0  0.55105  0.72061  0.94379  1.0000
  C   C28       1.0  0.44891  0.77939  0.44379  1.0000
  C   C29       1.0  0.31938  0.72158  0.26703  1.0000
  C   C30       1.0  0.68061  0.77842  0.76703  1.0000
  C   C31       1.0  0.68061  0.27843  0.73297  1.0000
  C   C32       1.0  0.31939  0.22157  0.23297  1.0000
  C   C33       1.0  0.45348  0.65899  0.22706  1.0000
  C   C34       1.0  0.54652  0.84101  0.72706  1.0000
  C   C35       1.0  0.54650  0.34102  0.77294  1.0000
  C   C36       1.0  0.45349  0.15899  0.27294  1.0000
  C   C37       1.0  0.61890  0.55115  0.23712  1.0000
  C   C38       1.0  0.38110  0.94885  0.73712  1.0000
  C   C39       1.0  0.38108  0.44885  0.76288  1.0000
  C   C40       1.0  0.61891  0.05115  0.26288  1.0000
  C   C41       1.0  0.63846  0.51215  0.28760  1.0000
  C   C42       1.0  0.36152  0.98784  0.78760  1.0000
  C   C43       1.0  0.36151  0.48785  0.71240  1.0000
  C   C44       1.0  0.63848  0.01216  0.21240  1.0000
  C   C45       1.0  0.49867  0.58213  0.32485  1.0000
  C   C46       1.0  0.50131  0.91786  0.82485  1.0000
  C   C47       1.0  0.50132  0.41787  0.67515  1.0000
  C   C48       1.0  0.49869  0.08213  0.17515  1.0000
  C   C49       1.0  0.90561  0.43122  0.16422  1.0000
  C   C50       1.0  0.09440  0.06877  0.66423  1.0000
  C   C51       1.0  0.09439  0.56877  0.83577  1.0000
  C   C52       1.0  0.90560  0.93123  0.33578  1.0000
  C   C53       1.0  0.76785  0.48548  0.19792  1.0000
  C   C54       1.0  0.23215  0.01452  0.69792  1.0000
  C   C55       1.0  0.23214  0.51453  0.80208  1.0000
  C   C56       1.0  0.76785  0.98548  0.30208  1.0000
  N   N1        1.0  0.09993  0.15948  0.88448  1.0000
  N   N2        1.0  0.90008  0.34053  0.38447  1.0000
  N   N3        1.0  0.90008  0.84052  0.11553  1.0000
  N   N4        1.0  0.09993  0.65947  0.61553  1.0000
  N   N5        1.0  0.34090  0.68464  0.31522  1.0000
  N   N6        1.0  0.65909  0.81536  0.81523  1.0000
  N   N7        1.0  0.65910  0.31536  0.68478  1.0000
  N   N8        1.0  0.34091  0.18464  0.18478  1.0000
