data_image0
_chemical_formula_structural       Pr2H6C20O16
_chemical_formula_sum              "Pr2 H6 C20 O16"
_cell_length_a       7.36027
_cell_length_b       8.23537
_cell_length_c       8.70449
_cell_angle_alpha    65.5912
_cell_angle_beta     85.3824
_cell_angle_gamma    83.7765

_space_group_name_H-M_alt    "P 1"
_space_group_IT_number       1

loop_
  _space_group_symop_operation_xyz
  'x, y, z'

loop_
  _atom_site_type_symbol
  _atom_site_label
  _atom_site_symmetry_multiplicity
  _atom_site_fract_x
  _atom_site_fract_y
  _atom_site_fract_z
  _atom_site_occupancy
  Pr  Pr1       1.0  0.92998  0.25732  0.99406  1.0000
  Pr  Pr2       1.0  0.07002  0.74267  0.00594  1.0000
  H   H1        1.0  0.49252  0.21788  0.00540  1.0000
  H   H2        1.0  0.50748  0.78211  0.99461  1.0000
  H   H3        1.0  0.07146  0.69530  0.54356  1.0000
  H   H4        1.0  0.92854  0.30470  0.45645  1.0000
  H   H5        1.0  0.73458  0.78054  0.47783  1.0000
  H   H6        1.0  0.26542  0.21946  0.52217  1.0000
  C   C1        1.0  0.66169  0.49134  0.75044  1.0000
  C   C2        1.0  0.33831  0.50866  0.24956  1.0000
  C   C3        1.0  0.24116  0.45522  0.79668  1.0000
  C   C4        1.0  0.75884  0.54478  0.20331  1.0000
  C   C5        1.0  0.14915  0.98354  0.26355  1.0000
  C   C6        1.0  0.85085  0.01646  0.73645  1.0000
  C   C7        1.0  0.55022  0.02940  0.22369  1.0000
  C   C8        1.0  0.44978  0.97060  0.77631  1.0000
  C   C9        1.0  0.52453  0.61727  0.63143  1.0000
  C   C10       1.0  0.47547  0.38273  0.36857  1.0000
  C   C11       1.0  0.33551  0.59573  0.65032  1.0000
  C   C12       1.0  0.66449  0.40427  0.34968  1.0000
  C   C13       1.0  0.21706  0.71451  0.52765  1.0000
  C   C14       1.0  0.78294  0.28549  0.47235  1.0000
  C   C15       1.0  0.28336  0.85733  0.38823  1.0000
  C   C16       1.0  0.71664  0.14267  0.61177  1.0000
  C   C17       1.0  0.47155  0.88247  0.37106  1.0000
  C   C18       1.0  0.52845  0.11753  0.62894  1.0000
  C   C19       1.0  0.58929  0.76219  0.49245  1.0000
  C   C20       1.0  0.41071  0.23781  0.50755  1.0000
  O   O1        1.0  0.60810  0.36564  0.88960  1.0000
  O   O2        1.0  0.39191  0.63435  0.11040  1.0000
  O   O3        1.0  0.83097  0.50761  0.71613  1.0000
  O   O4        1.0  0.16903  0.49239  0.28387  1.0000
  O   O5        1.0  0.16663  0.50011  0.91454  1.0000
  O   O6        1.0  0.83338  0.49989  0.08546  1.0000
  O   O7        1.0  0.21610  0.30685  0.79596  1.0000
  O   O8        1.0  0.78391  0.69315  0.20404  1.0000
  O   O9        1.0  0.08917  0.12806  0.27302  1.0000
  O   O10       1.0  0.91083  0.87194  0.72698  1.0000
  O   O11       1.0  0.09639  0.93897  0.14917  1.0000
  O   O12       1.0  0.90361  0.06103  0.85083  1.0000
  O   O13       1.0  0.71040  0.06852  0.21702  1.0000
  O   O14       1.0  0.28960  0.93148  0.78298  1.0000
  O   O15       1.0  0.43589  0.11292  0.10062  1.0000
  O   O16       1.0  0.56410  0.88708  0.89939  1.0000
