data_image0
_chemical_formula_structural       Na4H40C28S4N4O20
_chemical_formula_sum              "Na4 H40 C28 S4 N4 O20"
_cell_length_a       6.32395
_cell_length_b       7.98703
_cell_length_c       18.5265
_cell_angle_alpha    89.9999
_cell_angle_beta     90
_cell_angle_gamma    99.8011

_space_group_name_H-M_alt    "P 1"
_space_group_IT_number       1

loop_
  _space_group_symop_operation_xyz
  'x, y, z'

loop_
  _atom_site_type_symbol
  _atom_site_label
  _atom_site_symmetry_multiplicity
  _atom_site_fract_x
  _atom_site_fract_y
  _atom_site_fract_z
  _atom_site_occupancy
  Na  Na1       1.0  0.82100  0.49335  0.70410  1.0000
  Na  Na2       1.0  0.67900  0.50665  0.20410  1.0000
  Na  Na3       1.0  0.17900  0.50665  0.29590  1.0000
  Na  Na4       1.0  0.32100  0.49335  0.79590  1.0000
  H   H1        1.0  0.70706  0.78261  0.74826  1.0000
  H   H2        1.0  0.79293  0.21739  0.24826  1.0000
  H   H3        1.0  0.29293  0.21739  0.25174  1.0000
  H   H4        1.0  0.20706  0.78261  0.75174  1.0000
  H   H5        1.0  0.74563  0.71923  0.82698  1.0000
  H   H6        1.0  0.75437  0.28077  0.32698  1.0000
  H   H7        1.0  0.25438  0.28077  0.17302  1.0000
  H   H8        1.0  0.24562  0.71923  0.67302  1.0000
  H   H9        1.0  0.81927  0.58251  0.53295  1.0000
  H   H10       1.0  0.68073  0.41749  0.03295  1.0000
  H   H11       1.0  0.18072  0.41750  0.46705  1.0000
  H   H12       1.0  0.31928  0.58250  0.96705  1.0000
  H   H13       1.0  0.01002  0.51877  0.57242  1.0000
  H   H14       1.0  0.48998  0.48123  0.07242  1.0000
  H   H15       1.0  0.98998  0.48123  0.42758  1.0000
  H   H16       1.0  0.51003  0.51877  0.92758  1.0000
  H   H17       1.0  0.90216  0.01240  0.68566  1.0000
  H   H18       1.0  0.59784  0.98760  0.18567  1.0000
  H   H19       1.0  0.09783  0.98760  0.31434  1.0000
  H   H20       1.0  0.40217  0.01239  0.81434  1.0000
  H   H21       1.0  0.87793  0.82290  0.64432  1.0000
  H   H22       1.0  0.62207  0.17709  0.14432  1.0000
  H   H23       1.0  0.12205  0.17710  0.35568  1.0000
  H   H24       1.0  0.37794  0.82290  0.85568  1.0000
  H   H25       1.0  0.97761  0.14847  0.55022  1.0000
  H   H26       1.0  0.52240  0.85154  0.05022  1.0000
  H   H27       1.0  0.02238  0.85154  0.44979  1.0000
  H   H28       1.0  0.47762  0.14846  0.94979  1.0000
  H   H29       1.0  0.23699  0.76319  0.51504  1.0000
  H   H30       1.0  0.26302  0.23681  0.01505  1.0000
  H   H31       1.0  0.76300  0.23682  0.48496  1.0000
  H   H32       1.0  0.73700  0.76318  0.98496  1.0000
  H   H33       1.0  0.55620  0.70154  0.57607  1.0000
  H   H34       1.0  0.94381  0.29846  0.07608  1.0000
  H   H35       1.0  0.44379  0.29846  0.42392  1.0000
  H   H36       1.0  0.05621  0.70153  0.92393  1.0000
  H   H37       1.0  0.61922  0.17935  0.68851  1.0000
  H   H38       1.0  0.88079  0.82065  0.18851  1.0000
  H   H39       1.0  0.38078  0.82066  0.31149  1.0000
  H   H40       1.0  0.11921  0.17934  0.81149  1.0000
  C   C1        1.0  0.04841  0.04428  0.52827  1.0000
  C   C2        1.0  0.45159  0.95572  0.02827  1.0000
  C   C3        1.0  0.95158  0.95573  0.47173  1.0000
  C   C4        1.0  0.54842  0.04428  0.97174  1.0000
  C   C5        1.0  0.24081  0.00970  0.56389  1.0000
  C   C6        1.0  0.25920  0.99030  0.06389  1.0000
  C   C7        1.0  0.75917  0.99031  0.43611  1.0000
  C   C8        1.0  0.74082  0.00969  0.93611  1.0000
  C   C9        1.0  0.32088  0.85744  0.55217  1.0000
  C   C10       1.0  0.17912  0.14256  0.05217  1.0000
  C   C11       1.0  0.67910  0.14257  0.44783  1.0000
  C   C12       1.0  0.82089  0.85743  0.94783  1.0000
  C   C13       1.0  0.50292  0.82180  0.58646  1.0000
  C   C14       1.0  0.99708  0.17820  0.08646  1.0000
  C   C15       1.0  0.49707  0.17820  0.41354  1.0000
  C   C16       1.0  0.00293  0.82180  0.91354  1.0000
  C   C17       1.0  0.61684  0.93970  0.63487  1.0000
  C   C18       1.0  0.88316  0.06030  0.13488  1.0000
  C   C19       1.0  0.38315  0.06030  0.36513  1.0000
  C   C20       1.0  0.11685  0.93969  0.86513  1.0000
  C   C21       1.0  0.53863  0.09028  0.64888  1.0000
  C   C22       1.0  0.96137  0.90972  0.14889  1.0000
  C   C23       1.0  0.46136  0.90973  0.35112  1.0000
  C   C24       1.0  0.03864  0.09027  0.85111  1.0000
  C   C25       1.0  0.35615  0.12481  0.61375  1.0000
  C   C26       1.0  0.14385  0.87519  0.11375  1.0000
  C   C27       1.0  0.64384  0.87520  0.38625  1.0000
  C   C28       1.0  0.85616  0.12480  0.88625  1.0000
  S   S1        1.0  0.27135  0.32125  0.63495  1.0000
  S   S2        1.0  0.22865  0.67875  0.13495  1.0000
  S   S3        1.0  0.72864  0.67875  0.36505  1.0000
  S   S4        1.0  0.77135  0.32124  0.86505  1.0000
  N   N1        1.0  0.79811  0.90481  0.67145  1.0000
  N   N2        1.0  0.70190  0.09519  0.17146  1.0000
  N   N3        1.0  0.20188  0.09519  0.32854  1.0000
  N   N4        1.0  0.29812  0.90481  0.82855  1.0000
  O   O1        1.0  0.44085  0.41569  0.68060  1.0000
  O   O2        1.0  0.05915  0.58431  0.18059  1.0000
  O   O3        1.0  0.55914  0.58432  0.31941  1.0000
  O   O4        1.0  0.94085  0.41568  0.81940  1.0000
  O   O5        1.0  0.24624  0.41107  0.56637  1.0000
  O   O6        1.0  0.25375  0.58893  0.06637  1.0000
  O   O7        1.0  0.75375  0.58893  0.43363  1.0000
  O   O8        1.0  0.74624  0.41107  0.93363  1.0000
  O   O9        1.0  0.06524  0.27651  0.67373  1.0000
  O   O10       1.0  0.43475  0.72349  0.17373  1.0000
  O   O11       1.0  0.93474  0.72349  0.32627  1.0000
  O   O12       1.0  0.56525  0.27650  0.82627  1.0000
  O   O13       1.0  0.65411  0.69189  0.78462  1.0000
  O   O14       1.0  0.84589  0.30811  0.28462  1.0000
  O   O15       1.0  0.34590  0.30810  0.21538  1.0000
  O   O16       1.0  0.15410  0.69190  0.71538  1.0000
  O   O17       1.0  0.88004  0.56899  0.58092  1.0000
  O   O18       1.0  0.61997  0.43102  0.08093  1.0000
  O   O19       1.0  0.11995  0.43101  0.41908  1.0000
  O   O20       1.0  0.38005  0.56899  0.91908  1.0000
