data_image0
_chemical_formula_structural       C24Eu4H32O28
_chemical_formula_sum              "C24 Eu4 H32 O28"
_cell_length_a       7.73924
_cell_length_b       10.6269
_cell_length_c       12.919
_cell_angle_alpha    71.8928
_cell_angle_beta     72.5698
_cell_angle_gamma    68.6472

_space_group_name_H-M_alt    "P 1"
_space_group_IT_number       1

loop_
  _space_group_symop_operation_xyz
  'x, y, z'

loop_
  _atom_site_type_symbol
  _atom_site_label
  _atom_site_symmetry_multiplicity
  _atom_site_fract_x
  _atom_site_fract_y
  _atom_site_fract_z
  _atom_site_occupancy
  C   C1        1.0  0.43555  0.76723  0.53826  1.0000
  C   C2        1.0  0.74104  0.73278  0.96174  1.0000
  C   C3        1.0  0.56445  0.23277  0.46174  1.0000
  C   C4        1.0  0.25895  0.26722  0.03826  1.0000
  C   C5        1.0  0.39528  0.73941  0.44124  1.0000
  C   C6        1.0  0.57593  0.76059  0.05875  1.0000
  C   C7        1.0  0.60471  0.26059  0.55876  1.0000
  C   C8        1.0  0.42407  0.23941  0.94125  1.0000
  C   C9        1.0  0.20192  0.83091  0.41386  1.0000
  C   C10       1.0  0.44668  0.66909  0.08614  1.0000
  C   C11       1.0  0.79808  0.16909  0.58614  1.0000
  C   C12       1.0  0.55332  0.33091  0.91386  1.0000
  C   C13       1.0  0.19356  0.98110  0.35705  1.0000
  C   C14       1.0  0.53170  0.51890  0.14294  1.0000
  C   C15       1.0  0.80644  0.01890  0.64295  1.0000
  C   C16       1.0  0.46830  0.48110  0.85706  1.0000
  C   C17       1.0  0.18070  0.89647  0.89362  1.0000
  C   C18       1.0  0.97080  0.60352  0.60639  1.0000
  C   C19       1.0  0.81930  0.10353  0.10638  1.0000
  C   C20       1.0  0.02920  0.39648  0.39361  1.0000
  C   C21       1.0  0.99589  0.95063  0.96988  1.0000
  C   C22       1.0  0.91641  0.54937  0.53012  1.0000
  C   C23       1.0  0.00411  0.04937  0.03012  1.0000
  C   C24       1.0  0.08359  0.45063  0.46988  1.0000
  Eu  Eu1       1.0  0.51379  0.81130  0.73028  1.0000
  Eu  Eu2       1.0  0.05537  0.68869  0.76973  1.0000
  Eu  Eu3       1.0  0.48621  0.18870  0.26972  1.0000
  Eu  Eu4       1.0  0.94463  0.31131  0.23027  1.0000
  H   H1        1.0  0.39614  0.63055  0.46534  1.0000
  H   H2        1.0  0.49202  0.86946  0.03466  1.0000
  H   H3        1.0  0.60386  0.36945  0.53466  1.0000
  H   H4        1.0  0.50798  0.13054  0.96534  1.0000
  H   H5        1.0  0.50966  0.75331  0.36841  1.0000
  H   H6        1.0  0.63136  0.74669  0.13158  1.0000
  H   H7        1.0  0.49034  0.24669  0.63159  1.0000
  H   H8        1.0  0.36864  0.25331  0.86842  1.0000
  H   H9        1.0  0.16389  0.78864  0.35889  1.0000
  H   H10       1.0  0.31142  0.71135  0.14111  1.0000
  H   H11       1.0  0.83611  0.21136  0.64111  1.0000
  H   H12       1.0  0.68858  0.28865  0.85889  1.0000
  H   H13       1.0  0.08825  0.83154  0.48923  1.0000
  H   H14       1.0  0.40901  0.66846  0.01076  1.0000
  H   H15       1.0  0.91175  0.16846  0.51077  1.0000
  H   H16       1.0  0.59099  0.33154  0.98924  1.0000
  H   H17       1.0  0.95449  0.86129  0.02847  1.0000
  H   H18       1.0  0.84427  0.63871  0.47153  1.0000
  H   H19       1.0  0.04551  0.13871  0.97153  1.0000
  H   H20       1.0  0.15573  0.36129  0.52847  1.0000
  H   H21       1.0  0.88611  0.00074  0.91960  1.0000
  H   H22       1.0  0.80645  0.49927  0.58040  1.0000
  H   H23       1.0  0.11389  0.99926  0.08040  1.0000
  H   H24       1.0  0.19356  0.50073  0.41960  1.0000
  H   H25       1.0  0.32536  0.08268  0.58743  1.0000
  H   H26       1.0  0.99546  0.41732  0.91258  1.0000
  H   H27       1.0  0.67464  0.91732  0.41258  1.0000
  H   H28       1.0  0.00454  0.58268  0.08742  1.0000
  H   H29       1.0  0.16276  0.00335  0.64603  1.0000
  H   H30       1.0  0.81213  0.49665  0.85397  1.0000
  H   H31       1.0  0.83724  0.99665  0.35397  1.0000
  H   H32       1.0  0.18787  0.50335  0.14603  1.0000
  O   O1        1.0  0.56586  0.81992  0.52587  1.0000
  O   O2        1.0  0.91164  0.68009  0.97415  1.0000
  O   O3        1.0  0.43414  0.18008  0.47413  1.0000
  O   O4        1.0  0.08836  0.31991  0.02585  1.0000
  O   O5        1.0  0.33967  0.73384  0.63750  1.0000
  O   O6        1.0  0.71107  0.76617  0.86249  1.0000
  O   O7        1.0  0.66033  0.26616  0.36250  1.0000
  O   O8        1.0  0.28893  0.23383  0.13751  1.0000
  O   O9        1.0  0.03691  0.06389  0.33081  1.0000
  O   O10       1.0  0.43159  0.43611  0.16920  1.0000
  O   O11       1.0  0.96309  0.93611  0.66919  1.0000
  O   O12       1.0  0.56841  0.56389  0.83080  1.0000
  O   O13       1.0  0.34197  0.01492  0.33948  1.0000
  O   O14       1.0  0.69638  0.48508  0.16048  1.0000
  O   O15       1.0  0.65803  0.98508  0.66052  1.0000
  O   O16       1.0  0.30362  0.51492  0.83952  1.0000
  O   O17       1.0  0.19282  0.80825  0.83951  1.0000
  O   O18       1.0  0.84061  0.69175  0.66048  1.0000
  O   O19       1.0  0.80718  0.19175  0.16049  1.0000
  O   O20       1.0  0.15939  0.30825  0.33952  1.0000
  O   O21       1.0  0.32366  0.93411  0.88192  1.0000
  O   O22       1.0  0.13969  0.56585  0.61811  1.0000
  O   O23       1.0  0.67634  0.06589  0.11808  1.0000
  O   O24       1.0  0.86031  0.43415  0.38189  1.0000
  O   O25       1.0  0.27523  0.01912  0.65501  1.0000
  O   O26       1.0  0.94936  0.48088  0.84500  1.0000
  O   O27       1.0  0.72477  0.98088  0.34499  1.0000
  O   O28       1.0  0.05064  0.51912  0.15500  1.0000
