data_image0
_chemical_formula_structural       Cu5H6C8N26
_chemical_formula_sum              "Cu5 H6 C8 N26"
_cell_length_a       8.89682
_cell_length_b       8.89345
_cell_length_c       9.08484
_cell_angle_alpha    63.3653
_cell_angle_beta     63.3186
_cell_angle_gamma    77.8069

_space_group_name_H-M_alt    "P 1"
_space_group_IT_number       1

loop_
  _space_group_symop_operation_xyz
  'x, y, z'

loop_
  _atom_site_type_symbol
  _atom_site_label
  _atom_site_symmetry_multiplicity
  _atom_site_fract_x
  _atom_site_fract_y
  _atom_site_fract_z
  _atom_site_occupancy
  Cu  Cu1       1.0  1.00000  1.00000  0.00000  1.0000
  Cu  Cu2       1.0  0.50221  0.50222  0.71847  1.0000
  Cu  Cu3       1.0  0.49779  0.49777  0.28153  1.0000
  Cu  Cu4       1.0  0.20161  0.20157  0.13613  1.0000
  Cu  Cu5       1.0  0.79839  0.79843  0.86387  1.0000
  H   H1        1.0  0.20088  0.20091  0.57021  1.0000
  H   H2        1.0  0.79912  0.79909  0.42980  1.0000
  H   H3        1.0  0.83496  0.38654  0.80711  1.0000
  H   H4        1.0  0.61362  0.16499  0.19266  1.0000
  H   H5        1.0  0.16503  0.61346  0.19289  1.0000
  H   H6        1.0  0.38638  0.83501  0.80734  1.0000
  C   C1        1.0  0.23771  0.23769  0.64782  1.0000
  C   C2        1.0  0.76229  0.76231  0.35219  1.0000
  C   C3        1.0  0.79252  0.28788  0.79637  1.0000
  C   C4        1.0  0.71225  0.20743  0.20342  1.0000
  C   C5        1.0  0.20748  0.71212  0.20364  1.0000
  C   C6        1.0  0.28776  0.79257  0.79658  1.0000
  C   C7        1.0  0.68776  0.68775  0.81146  1.0000
  C   C8        1.0  0.31224  0.31225  0.18854  1.0000
  N   N1        1.0  0.17392  0.17387  0.82846  1.0000
  N   N2        1.0  0.82608  0.82613  0.17154  1.0000
  N   N3        1.0  0.25115  0.25108  0.87185  1.0000
  N   N4        1.0  0.74885  0.74892  0.12815  1.0000
  N   N5        1.0  0.35761  0.35759  0.72111  1.0000
  N   N6        1.0  0.64239  0.64241  0.27889  1.0000
  N   N7        1.0  0.35272  0.35273  0.57865  1.0000
  N   N8        1.0  0.64728  0.64727  0.42135  1.0000
  N   N9        1.0  0.66520  0.30436  0.74917  1.0000
  N   N10       1.0  0.69566  0.33467  0.25087  1.0000
  N   N11       1.0  0.33480  0.69564  0.25083  1.0000
  N   N12       1.0  0.30434  0.66533  0.74914  1.0000
  N   N13       1.0  0.65047  0.15523  0.75135  1.0000
  N   N14       1.0  0.84475  0.34940  0.24870  1.0000
  N   N15       1.0  0.34954  0.84477  0.24865  1.0000
  N   N16       1.0  0.15525  0.65060  0.75130  1.0000
  N   N17       1.0  0.76598  0.05316  0.79956  1.0000
  N   N18       1.0  0.94691  0.23397  0.20024  1.0000
  N   N19       1.0  0.23402  0.94685  0.20044  1.0000
  N   N20       1.0  0.05309  0.76603  0.79976  1.0000
  N   N21       1.0  0.85655  0.13258  0.82972  1.0000
  N   N22       1.0  0.86758  0.14347  0.16988  1.0000
  N   N23       1.0  0.14345  0.86742  0.17028  1.0000
  N   N24       1.0  0.13242  0.85653  0.83012  1.0000
  N   N25       1.0  0.61684  0.61695  0.77848  1.0000
  N   N26       1.0  0.38316  0.38305  0.22151  1.0000
