data_image0
_chemical_formula_structural       MnH10C8O12
_chemical_formula_sum              "Mn1 H10 C8 O12"
_cell_length_a       5.14263
_cell_length_b       7.49428
_cell_length_c       8.87647
_cell_angle_alpha    66.468
_cell_angle_beta     76.8199
_cell_angle_gamma    74.7031

_space_group_name_H-M_alt    "P 1"
_space_group_IT_number       1

loop_
  _space_group_symop_operation_xyz
  'x, y, z'

loop_
  _atom_site_type_symbol
  _atom_site_label
  _atom_site_symmetry_multiplicity
  _atom_site_fract_x
  _atom_site_fract_y
  _atom_site_fract_z
  _atom_site_occupancy
  Mn  Mn1       1.0  0.99859  0.00133  0.99825  1.0000
  H   H1        1.0  0.01664  0.98775  0.49905  1.0000
  H   H2        1.0  0.02058  0.49242  0.50187  1.0000
  H   H3        1.0  0.24459  0.83171  0.27953  1.0000
  H   H4        1.0  0.75023  0.17008  0.71716  1.0000
  H   H5        1.0  0.47544  0.78403  0.13837  1.0000
  H   H6        1.0  0.52198  0.21638  0.86074  1.0000
  H   H7        1.0  0.81756  0.70139  0.96348  1.0000
  H   H8        1.0  0.18006  0.29995  0.03760  1.0000
  H   H9        1.0  0.91713  0.61670  0.13844  1.0000
  H   H10       1.0  0.08006  0.38474  0.86268  1.0000
  C   C1        1.0  0.60008  0.17800  0.28136  1.0000
  C   C2        1.0  0.39949  0.82406  0.71899  1.0000
  C   C3        1.0  0.63269  0.20181  0.43321  1.0000
  C   C4        1.0  0.36599  0.79951  0.57004  1.0000
  C   C5        1.0  0.36990  0.33349  0.43133  1.0000
  C   C6        1.0  0.62771  0.66692  0.56678  1.0000
  C   C7        1.0  0.33139  0.31725  0.27862  1.0000
  C   C8        1.0  0.66738  0.68410  0.72132  1.0000
  O   O1        1.0  0.73098  0.07397  0.19888  1.0000
  O   O2        1.0  0.27020  0.92819  0.80226  1.0000
  O   O3        1.0  0.81019  0.12690  0.53241  1.0000
  O   O4        1.0  0.18484  0.87477  0.46927  1.0000
  O   O5        1.0  0.22814  0.41718  0.53299  1.0000
  O   O6        1.0  0.76599  0.58427  0.46725  1.0000
  O   O7        1.0  0.14739  0.38280  0.18811  1.0000
  O   O8        1.0  0.85153  0.61867  0.81109  1.0000
  O   O9        1.0  0.27453  0.81167  0.17321  1.0000
  O   O10       1.0  0.72221  0.18876  0.82466  1.0000
  O   O11       1.0  0.81041  0.73694  0.06264  1.0000
  O   O12       1.0  0.18610  0.26424  0.93840  1.0000
