data_image0
_chemical_formula_structural       FeH10C8O12
_chemical_formula_sum              "Fe1 H10 C8 O12"
_cell_length_a       5.12457
_cell_length_b       7.38769
_cell_length_c       8.77148
_cell_angle_alpha    66.9164
_cell_angle_beta     77.1437
_cell_angle_gamma    75.2033

_space_group_name_H-M_alt    "P 1"
_space_group_IT_number       1

loop_
  _space_group_symop_operation_xyz
  'x, y, z'

loop_
  _atom_site_type_symbol
  _atom_site_label
  _atom_site_symmetry_multiplicity
  _atom_site_fract_x
  _atom_site_fract_y
  _atom_site_fract_z
  _atom_site_occupancy
  Fe  Fe1       1.0  0.00213  0.99851  0.00075  1.0000
  H   H1        1.0  0.98446  0.01164  0.50092  1.0000
  H   H2        1.0  0.98024  0.50814  0.49719  1.0000
  H   H3        1.0  0.24135  0.83887  0.27978  1.0000
  H   H4        1.0  0.76275  0.15983  0.72295  1.0000
  H   H5        1.0  0.47093  0.79253  0.13370  1.0000
  H   H6        1.0  0.53148  0.20713  0.86729  1.0000
  H   H7        1.0  0.81693  0.69911  0.96641  1.0000
  H   H8        1.0  0.18452  0.29947  0.03298  1.0000
  H   H9        1.0  0.90544  0.62264  0.14505  1.0000
  H   H10       1.0  0.09733  0.37590  0.85400  1.0000
  C   C1        1.0  0.60640  0.18214  0.27445  1.0000
  C   C2        1.0  0.39411  0.81559  0.72547  1.0000
  C   C3        1.0  0.63524  0.20201  0.42891  1.0000
  C   C4        1.0  0.36662  0.79697  0.56803  1.0000
  C   C5        1.0  0.37257  0.33270  0.43363  1.0000
  C   C6        1.0  0.63026  0.66722  0.56815  1.0000
  C   C7        1.0  0.33485  0.31865  0.27548  1.0000
  C   C8        1.0  0.66672  0.67997  0.72478  1.0000
  O   O1        1.0  0.74113  0.08427  0.18537  1.0000
  O   O2        1.0  0.25672  0.91221  0.81463  1.0000
  O   O3        1.0  0.81560  0.12545  0.53152  1.0000
  O   O4        1.0  0.18962  0.87296  0.46701  1.0000
  O   O5        1.0  0.23187  0.41411  0.53570  1.0000
  O   O6        1.0  0.77411  0.58520  0.46359  1.0000
  O   O7        1.0  0.14961  0.38433  0.18543  1.0000
  O   O8        1.0  0.85157  0.61406  0.81568  1.0000
  O   O9        1.0  0.26953  0.82278  0.16953  1.0000
  O   O10       1.0  0.73330  0.17695  0.83212  1.0000
  O   O11       1.0  0.80160  0.74084  0.06546  1.0000
  O   O12       1.0  0.20100  0.25785  0.93404  1.0000
