data_image0
_chemical_formula_structural       Cu2H12C8N24O8
_chemical_formula_sum              "Cu2 H12 C8 N24 O8"
_cell_length_a       6.97665
_cell_length_b       8.78972
_cell_length_c       9.4909
_cell_angle_alpha    101.735
_cell_angle_beta     90.0007
_cell_angle_gamma    90.0006

_space_group_name_H-M_alt    "P 1"
_space_group_IT_number       1

loop_
  _space_group_symop_operation_xyz
  'x, y, z'

loop_
  _atom_site_type_symbol
  _atom_site_label
  _atom_site_symmetry_multiplicity
  _atom_site_fract_x
  _atom_site_fract_y
  _atom_site_fract_z
  _atom_site_occupancy
  Cu  Cu1       1.0  0.00000  0.00000  1.00000  1.0000
  Cu  Cu2       1.0  0.50000  0.00000  0.50000  1.0000
  H   H1        1.0  0.09957  0.33277  0.78308  1.0000
  H   H2        1.0  0.59957  0.66724  0.71694  1.0000
  H   H3        1.0  0.90043  0.66723  0.21692  1.0000
  H   H4        1.0  0.40043  0.33275  0.28306  1.0000
  H   H5        1.0  0.20113  0.37211  0.61962  1.0000
  H   H6        1.0  0.70113  0.62790  0.88040  1.0000
  H   H7        1.0  0.79887  0.62788  0.38038  1.0000
  H   H8        1.0  0.29887  0.37210  0.11961  1.0000
  H   H9        1.0  0.04728  0.51245  0.72804  1.0000
  H   H10       1.0  0.54728  0.48757  0.77197  1.0000
  H   H11       1.0  0.95272  0.48755  0.27196  1.0000
  H   H12       1.0  0.45272  0.51243  0.22803  1.0000
  C   C1        1.0  0.07678  0.38853  0.69154  1.0000
  C   C2        1.0  0.57678  0.61148  0.80847  1.0000
  C   C3        1.0  0.92322  0.61146  0.30846  1.0000
  C   C4        1.0  0.42322  0.38852  0.19153  1.0000
  C   C5        1.0  0.83644  0.17420  0.60261  1.0000
  C   C6        1.0  0.33644  0.82580  0.89740  1.0000
  C   C7        1.0  0.16356  0.82580  0.39740  1.0000
  C   C8        1.0  0.66356  0.17420  0.10260  1.0000
  N   N1        1.0  0.65999  0.30684  0.47983  1.0000
  N   N2        1.0  0.15999  0.69317  0.02018  1.0000
  N   N3        1.0  0.34001  0.69316  0.52017  1.0000
  N   N4        1.0  0.84001  0.30683  0.97982  1.0000
  N   N5        1.0  0.92050  0.07223  0.67225  1.0000
  N   N6        1.0  0.42050  0.92777  0.82776  1.0000
  N   N7        1.0  0.07949  0.92777  0.32775  1.0000
  N   N8        1.0  0.57950  0.07223  0.17224  1.0000
  N   N9        1.0  0.85183  0.93075  0.65401  1.0000
  N   N10       1.0  0.35183  0.06926  0.84599  1.0000
  N   N11       1.0  0.14817  0.06925  0.34599  1.0000
  N   N12       1.0  0.64818  0.93074  0.15401  1.0000
  N   N13       1.0  0.79777  0.39820  0.53569  1.0000
  N   N14       1.0  0.29778  0.60180  0.96432  1.0000
  N   N15       1.0  0.20223  0.60180  0.46431  1.0000
  N   N16       1.0  0.70222  0.39820  0.03568  1.0000
  N   N17       1.0  0.90907  0.31929  0.61316  1.0000
  N   N18       1.0  0.40908  0.68072  0.88685  1.0000
  N   N19       1.0  0.09093  0.68071  0.38684  1.0000
  N   N20       1.0  0.59093  0.31929  0.11315  1.0000
  N   N21       1.0  0.67958  0.16737  0.51848  1.0000
  N   N22       1.0  0.17959  0.83264  0.98152  1.0000
  N   N23       1.0  0.32041  0.83263  0.48151  1.0000
  N   N24       1.0  0.82041  0.16736  0.01848  1.0000
  O   O1        1.0  0.92947  0.83921  0.72196  1.0000
  O   O2        1.0  0.42947  0.16079  0.77804  1.0000
  O   O3        1.0  0.07052  0.16079  0.27804  1.0000
  O   O4        1.0  0.57054  0.83921  0.22195  1.0000
  O   O5        1.0  0.71138  0.87637  0.56744  1.0000
  O   O6        1.0  0.21137  0.12363  0.93256  1.0000
  O   O7        1.0  0.28862  0.12363  0.43256  1.0000
  O   O8        1.0  0.78863  0.87637  0.06744  1.0000
