data_image0
_chemical_formula_structural       H8Pb4C4S4O12F4
_chemical_formula_sum              "H8 Pb4 C4 S4 O12 F4"
_cell_length_a       4.63496
_cell_length_b       8.8895
_cell_length_c       11.1325
_cell_angle_alpha    99.8809
_cell_angle_beta     102.007
_cell_angle_gamma    89.9778

_space_group_name_H-M_alt    "P 1"
_space_group_IT_number       1

loop_
  _space_group_symop_operation_xyz
  'x, y, z'

loop_
  _atom_site_type_symbol
  _atom_site_label
  _atom_site_symmetry_multiplicity
  _atom_site_fract_x
  _atom_site_fract_y
  _atom_site_fract_z
  _atom_site_occupancy
  H   H1        1.0  0.28477  0.41445  0.05797  1.0000
  H   H2        1.0  0.22626  0.08540  0.94225  1.0000
  H   H3        1.0  0.71522  0.58555  0.94203  1.0000
  H   H4        1.0  0.77374  0.91461  0.05775  1.0000
  H   H5        1.0  0.27987  0.61434  0.05031  1.0000
  H   H6        1.0  0.23006  0.88554  0.94998  1.0000
  H   H7        1.0  0.72011  0.38567  0.94969  1.0000
  H   H8        1.0  0.76995  0.11446  0.05002  1.0000
  Pb  Pb1       1.0  0.20987  0.35199  0.38731  1.0000
  Pb  Pb2       1.0  0.82224  0.14791  0.61302  1.0000
  Pb  Pb3       1.0  0.79014  0.64799  0.61265  1.0000
  Pb  Pb4       1.0  0.17773  0.85207  0.38701  1.0000
  C   C1        1.0  0.41850  0.51437  0.05342  1.0000
  C   C2        1.0  0.36497  0.98559  0.94668  1.0000
  C   C3        1.0  0.58149  0.48563  0.94658  1.0000
  C   C4        1.0  0.63503  0.01442  0.05332  1.0000
  S   S1        1.0  0.67693  0.55380  0.19879  1.0000
  S   S2        1.0  0.47818  0.94637  0.80134  1.0000
  S   S3        1.0  0.32307  0.44621  0.80120  1.0000
  S   S4        1.0  0.52183  0.05362  0.19866  1.0000
  O   O1        1.0  0.50963  0.58076  0.29947  1.0000
  O   O2        1.0  0.21040  0.91988  0.70063  1.0000
  O   O3        1.0  0.49038  0.41925  0.70053  1.0000
  O   O4        1.0  0.78961  0.08011  0.29937  1.0000
  O   O5        1.0  0.85496  0.41593  0.20281  1.0000
  O   O6        1.0  0.65265  0.08420  0.79770  1.0000
  O   O7        1.0  0.14503  0.58408  0.79718  1.0000
  O   O8        1.0  0.34735  0.91579  0.20230  1.0000
  O   O9        1.0  0.85280  0.68951  0.19276  1.0000
  O   O10       1.0  0.65960  0.81038  0.80704  1.0000
  O   O11       1.0  0.14718  0.31049  0.80723  1.0000
  O   O12       1.0  0.34041  0.18962  0.19296  1.0000
  F   F1        1.0  0.28800  0.12534  0.50397  1.0000
  F   F2        1.0  0.78379  0.37450  0.49590  1.0000
  F   F3        1.0  0.71197  0.87465  0.49603  1.0000
  F   F4        1.0  0.21627  0.62552  0.50411  1.0000
