data_image0
_chemical_formula_structural       Cu8H20C24N20
_chemical_formula_sum              "Cu8 H20 C24 N20"
_cell_length_a       7.72818
_cell_length_b       7.72825
_cell_length_c       14.6247
_cell_angle_alpha    78.0146
_cell_angle_beta     78.0148
_cell_angle_gamma    70.4104

_space_group_name_H-M_alt    "P 1"
_space_group_IT_number       1

loop_
  _space_group_symop_operation_xyz
  'x, y, z'

loop_
  _atom_site_type_symbol
  _atom_site_label
  _atom_site_symmetry_multiplicity
  _atom_site_fract_x
  _atom_site_fract_y
  _atom_site_fract_z
  _atom_site_occupancy
  Cu  Cu1       1.0  0.96148  0.20095  0.67729  1.0000
  Cu  Cu2       1.0  0.79904  0.03852  0.82271  1.0000
  Cu  Cu3       1.0  0.03852  0.79905  0.32270  1.0000
  Cu  Cu4       1.0  0.20095  0.96148  0.17729  1.0000
  Cu  Cu5       1.0  0.47384  0.87351  0.46670  1.0000
  Cu  Cu6       1.0  0.12650  0.52616  0.03330  1.0000
  Cu  Cu7       1.0  0.52616  0.12650  0.53330  1.0000
  Cu  Cu8       1.0  0.87350  0.47384  0.96669  1.0000
  H   H1        1.0  0.05985  0.15762  0.47333  1.0000
  H   H2        1.0  0.84237  0.94014  0.02667  1.0000
  H   H3        1.0  0.94014  0.84238  0.52667  1.0000
  H   H4        1.0  0.15762  0.05985  0.97333  1.0000
  H   H5        1.0  0.55190  0.70353  0.63243  1.0000
  H   H6        1.0  0.29646  0.44810  0.86757  1.0000
  H   H7        1.0  0.44810  0.29647  0.36757  1.0000
  H   H8        1.0  0.70353  0.55190  0.13243  1.0000
  H   H9        1.0  0.70583  0.50823  0.69277  1.0000
  H   H10       1.0  0.49177  0.29417  0.80723  1.0000
  H   H11       1.0  0.29417  0.49177  0.30723  1.0000
  H   H12       1.0  0.50823  0.70583  0.19277  1.0000
  H   H13       1.0  0.69143  0.63672  0.32634  1.0000
  H   H14       1.0  0.36328  0.30858  0.17366  1.0000
  H   H15       1.0  0.30858  0.36328  0.67366  1.0000
  H   H16       1.0  0.63672  0.69142  0.82634  1.0000
  H   H17       1.0  0.95040  0.32977  0.31878  1.0000
  H   H18       1.0  0.67024  0.04960  0.18122  1.0000
  H   H19       1.0  0.04961  0.67023  0.68122  1.0000
  H   H20       1.0  0.32977  0.95040  0.81878  1.0000
  C   C1        1.0  0.31080  0.96460  0.57231  1.0000
  C   C2        1.0  0.03541  0.68921  0.92768  1.0000
  C   C3        1.0  0.68921  0.03541  0.42768  1.0000
  C   C4        1.0  0.96459  0.31079  0.07231  1.0000
  C   C5        1.0  0.92553  0.30757  0.78541  1.0000
  C   C6        1.0  0.69242  0.07447  0.71459  1.0000
  C   C7        1.0  0.07447  0.69242  0.21459  1.0000
  C   C8        1.0  0.30758  0.92553  0.28541  1.0000
  C   C9        1.0  0.94628  0.28764  0.47020  1.0000
  C   C10       1.0  0.71237  0.05371  0.02980  1.0000
  C   C11       1.0  0.05371  0.71237  0.52980  1.0000
  C   C12       1.0  0.28764  0.94628  0.97020  1.0000
  C   C13       1.0  0.72761  0.51228  0.55166  1.0000
  C   C14       1.0  0.48772  0.27238  0.94834  1.0000
  C   C15       1.0  0.27238  0.48773  0.44834  1.0000
  C   C16       1.0  0.51227  0.72761  0.05166  1.0000
  C   C17       1.0  0.74520  0.54943  0.38929  1.0000
  C   C18       1.0  0.45057  0.25480  0.11071  1.0000
  C   C19       1.0  0.25480  0.45058  0.61071  1.0000
  C   C20       1.0  0.54943  0.74520  0.88929  1.0000
  C   C21       1.0  0.88754  0.38314  0.38506  1.0000
  C   C22       1.0  0.61687  0.11245  0.11494  1.0000
  C   C23       1.0  0.11246  0.61687  0.61494  1.0000
  C   C24       1.0  0.38313  0.88754  0.88506  1.0000
  N   N1        1.0  0.17886  0.01969  0.62828  1.0000
  N   N2        1.0  0.98032  0.82114  0.87172  1.0000
  N   N3        1.0  0.82114  0.98033  0.37172  1.0000
  N   N4        1.0  0.01968  0.17886  0.12828  1.0000
  N   N5        1.0  0.86968  0.34987  0.55311  1.0000
  N   N6        1.0  0.65012  0.13032  0.94690  1.0000
  N   N7        1.0  0.13032  0.65013  0.44689  1.0000
  N   N8        1.0  0.34987  0.86968  0.05310  1.0000
  N   N9        1.0  0.64457  0.57350  0.63431  1.0000
  N   N10       1.0  0.42650  0.35543  0.86569  1.0000
  N   N11       1.0  0.35543  0.42650  0.36569  1.0000
  N   N12       1.0  0.57350  0.64457  0.13431  1.0000
  N   N13       1.0  0.91523  0.38568  0.84859  1.0000
  N   N14       1.0  0.61432  0.08477  0.65141  1.0000
  N   N15       1.0  0.08477  0.61432  0.15141  1.0000
  N   N16       1.0  0.38568  0.91523  0.34859  1.0000
  N   N17       1.0  0.66446  0.61509  0.47107  1.0000
  N   N18       1.0  0.38490  0.33554  0.02893  1.0000
  N   N19       1.0  0.33554  0.38491  0.52893  1.0000
  N   N20       1.0  0.61509  0.66445  0.97107  1.0000
