data_image0
_chemical_formula_structural       Cu8H20C24N20
_chemical_formula_sum              "Cu8 H20 C24 N20"
_cell_length_a       7.13527
_cell_length_b       7.67316
_cell_length_c       14.7512
_cell_angle_alpha    90.0002
_cell_angle_beta     90.0003
_cell_angle_gamma    91.622

_space_group_name_H-M_alt    "P 1"
_space_group_IT_number       1

loop_
  _space_group_symop_operation_xyz
  'x, y, z'

loop_
  _atom_site_type_symbol
  _atom_site_label
  _atom_site_symmetry_multiplicity
  _atom_site_fract_x
  _atom_site_fract_y
  _atom_site_fract_z
  _atom_site_occupancy
  Cu  Cu1       1.0  0.03188  0.89603  0.44033  1.0000
  Cu  Cu2       1.0  0.96812  0.60396  0.94033  1.0000
  Cu  Cu3       1.0  0.96811  0.10396  0.55967  1.0000
  Cu  Cu4       1.0  0.03189  0.39603  0.05967  1.0000
  Cu  Cu5       1.0  0.52623  0.59331  0.56460  1.0000
  Cu  Cu6       1.0  0.47377  0.90668  0.06460  1.0000
  Cu  Cu7       1.0  0.47377  0.40668  0.43540  1.0000
  Cu  Cu8       1.0  0.52623  0.09332  0.93540  1.0000
  H   H1        1.0  0.33070  0.04472  0.20354  1.0000
  H   H2        1.0  0.66930  0.45529  0.70354  1.0000
  H   H3        1.0  0.66930  0.95529  0.79646  1.0000
  H   H4        1.0  0.33070  0.54472  0.29646  1.0000
  H   H5        1.0  0.34987  0.06528  0.32123  1.0000
  H   H6        1.0  0.65014  0.43473  0.82123  1.0000
  H   H7        1.0  0.65013  0.93472  0.67877  1.0000
  H   H8        1.0  0.34986  0.56528  0.17877  1.0000
  H   H9        1.0  0.63134  0.97617  0.40206  1.0000
  H   H10       1.0  0.36866  0.52384  0.90206  1.0000
  H   H11       1.0  0.36866  0.02383  0.59794  1.0000
  H   H12       1.0  0.63133  0.47617  0.09794  1.0000
  H   H13       1.0  0.07626  0.80807  0.24438  1.0000
  H   H14       1.0  0.92374  0.69193  0.74438  1.0000
  H   H15       1.0  0.92374  0.19193  0.75562  1.0000
  H   H16       1.0  0.07627  0.30807  0.25561  1.0000
  H   H17       1.0  0.87484  0.82398  0.10484  1.0000
  H   H18       1.0  0.12516  0.67602  0.60484  1.0000
  H   H19       1.0  0.12516  0.17602  0.89516  1.0000
  H   H20       1.0  0.87484  0.32398  0.39516  1.0000
  C   C1        1.0  0.83889  0.87272  0.54444  1.0000
  C   C2        1.0  0.16112  0.62727  0.04444  1.0000
  C   C3        1.0  0.16112  0.12727  0.45556  1.0000
  C   C4        1.0  0.83889  0.37272  0.95556  1.0000
  C   C5        1.0  0.33958  0.62616  0.45737  1.0000
  C   C6        1.0  0.66042  0.87384  0.95736  1.0000
  C   C7        1.0  0.66042  0.37383  0.54264  1.0000
  C   C8        1.0  0.33958  0.12617  0.04263  1.0000
  C   C9        1.0  0.57266  0.95579  0.25704  1.0000
  C   C10       1.0  0.42734  0.54422  0.75704  1.0000
  C   C11       1.0  0.42734  0.04421  0.74296  1.0000
  C   C12       1.0  0.57266  0.45579  0.24296  1.0000
  C   C13       1.0  0.68623  0.94273  0.33545  1.0000
  C   C14       1.0  0.31378  0.55728  0.83545  1.0000
  C   C15       1.0  0.31377  0.05727  0.66455  1.0000
  C   C16       1.0  0.68623  0.44273  0.16455  1.0000
  C   C17       1.0  0.93153  0.84866  0.24794  1.0000
  C   C18       1.0  0.06847  0.65133  0.74794  1.0000
  C   C19       1.0  0.06847  0.15134  0.75206  1.0000
  C   C20       1.0  0.93153  0.34867  0.25206  1.0000
  C   C21       1.0  0.82072  0.85864  0.17136  1.0000
  C   C22       1.0  0.17928  0.64136  0.67136  1.0000
  C   C23       1.0  0.17928  0.14136  0.82864  1.0000
  C   C24       1.0  0.82072  0.35864  0.32864  1.0000
  N   N1        1.0  0.71122  0.77884  0.56509  1.0000
  N   N2        1.0  0.28876  0.72114  0.06509  1.0000
  N   N3        1.0  0.28877  0.22114  0.43491  1.0000
  N   N4        1.0  0.71122  0.27884  0.93491  1.0000
  N   N5        1.0  0.21641  0.72112  0.44063  1.0000
  N   N6        1.0  0.78359  0.77887  0.94063  1.0000
  N   N7        1.0  0.78359  0.27887  0.55937  1.0000
  N   N8        1.0  0.21640  0.22112  0.05937  1.0000
  N   N9        1.0  0.64150  0.91014  0.17467  1.0000
  N   N10       1.0  0.35850  0.58987  0.67467  1.0000
  N   N11       1.0  0.35850  0.08987  0.82533  1.0000
  N   N12       1.0  0.64150  0.41013  0.32533  1.0000
  N   N13       1.0  0.86232  0.89041  0.33061  1.0000
  N   N14       1.0  0.13768  0.60959  0.83061  1.0000
  N   N15       1.0  0.13768  0.10959  0.66939  1.0000
  N   N16       1.0  0.86232  0.39041  0.16939  1.0000
  N   N17       1.0  0.39490  0.01051  0.26237  1.0000
  N   N18       1.0  0.60510  0.48950  0.76237  1.0000
  N   N19       1.0  0.60510  0.98949  0.73763  1.0000
  N   N20       1.0  0.39490  0.51051  0.23763  1.0000
