data_image0
_chemical_formula_structural       Cu4H12C20N8
_chemical_formula_sum              "Cu4 H12 C20 N8"
_cell_length_a       8.06679
_cell_length_b       8.06686
_cell_length_c       8.99447
_cell_angle_alpha    70.0234
_cell_angle_beta     70.023
_cell_angle_gamma    80.5294

_space_group_name_H-M_alt    "P 1"
_space_group_IT_number       1

loop_
  _space_group_symop_operation_xyz
  'x, y, z'

loop_
  _atom_site_type_symbol
  _atom_site_label
  _atom_site_symmetry_multiplicity
  _atom_site_fract_x
  _atom_site_fract_y
  _atom_site_fract_z
  _atom_site_occupancy
  Cu  Cu1       1.0  0.97421  0.79442  0.92860  1.0000
  Cu  Cu2       1.0  0.20558  0.02579  0.57140  1.0000
  Cu  Cu3       1.0  0.02579  0.20558  0.07140  1.0000
  Cu  Cu4       1.0  0.79442  0.97421  0.42860  1.0000
  H   H1        1.0  0.20717  0.47866  0.03628  1.0000
  H   H2        1.0  0.52135  0.79282  0.46372  1.0000
  H   H3        1.0  0.79283  0.52134  0.96372  1.0000
  H   H4        1.0  0.47865  0.20718  0.53627  1.0000
  H   H5        1.0  0.44220  0.22306  0.04148  1.0000
  H   H6        1.0  0.77694  0.55780  0.45852  1.0000
  H   H7        1.0  0.55780  0.77694  0.95852  1.0000
  H   H8        1.0  0.22306  0.44220  0.54148  1.0000
  H   H9        1.0  0.73367  0.10185  0.89406  1.0000
  H   H10       1.0  0.89815  0.26633  0.60593  1.0000
  H   H11       1.0  0.26633  0.89815  0.10594  1.0000
  H   H12       1.0  0.10185  0.73367  0.39407  1.0000
  C   C1        1.0  0.83096  0.88430  0.63333  1.0000
  C   C2        1.0  0.11571  0.16904  0.86666  1.0000
  C   C3        1.0  0.16904  0.11570  0.36666  1.0000
  C   C4        1.0  0.88430  0.83096  0.13334  1.0000
  C   C5        1.0  0.28430  0.54045  0.90749  1.0000
  C   C6        1.0  0.45955  0.71570  0.59251  1.0000
  C   C7        1.0  0.71570  0.45955  0.09251  1.0000
  C   C8        1.0  0.54045  0.28430  0.40749  1.0000
  C   C9        1.0  0.44642  0.45944  0.83298  1.0000
  C   C10       1.0  0.54056  0.55358  0.66703  1.0000
  C   C11       1.0  0.55358  0.54056  0.16702  1.0000
  C   C12       1.0  0.45944  0.44642  0.33297  1.0000
  C   C13       1.0  0.51657  0.29500  0.91503  1.0000
  C   C14       1.0  0.70500  0.48343  0.58497  1.0000
  C   C15       1.0  0.48343  0.70500  0.08497  1.0000
  C   C16       1.0  0.29500  0.51657  0.41503  1.0000
  C   C17       1.0  0.67746  0.22835  0.83237  1.0000
  C   C18       1.0  0.77165  0.32254  0.66763  1.0000
  C   C19       1.0  0.32254  0.77165  0.16763  1.0000
  C   C20       1.0  0.22835  0.67746  0.33237  1.0000
  N   N1        1.0  0.87097  0.83408  0.75659  1.0000
  N   N2        1.0  0.16592  0.12903  0.74341  1.0000
  N   N3        1.0  0.12903  0.16591  0.24342  1.0000
  N   N4        1.0  0.83408  0.87097  0.25659  1.0000
  N   N5        1.0  0.21713  0.69360  0.83066  1.0000
  N   N6        1.0  0.30640  0.78287  0.66934  1.0000
  N   N7        1.0  0.78287  0.30640  0.16934  1.0000
  N   N8        1.0  0.69360  0.21713  0.33066  1.0000
