data_image0
_chemical_formula_structural       In2H18C24O12
_chemical_formula_sum              "In2 H18 C24 O12"
_cell_length_a       5.95423
_cell_length_b       7.50868
_cell_length_c       12.4275
_cell_angle_alpha    89.9839
_cell_angle_beta     89.3305
_cell_angle_gamma    90.0029

_space_group_name_H-M_alt    "P 1"
_space_group_IT_number       1

loop_
  _space_group_symop_operation_xyz
  'x, y, z'

loop_
  _atom_site_type_symbol
  _atom_site_label
  _atom_site_symmetry_multiplicity
  _atom_site_fract_x
  _atom_site_fract_y
  _atom_site_fract_z
  _atom_site_occupancy
  In  In1       1.0  0.00048  0.83372  0.49765  1.0000
  In  In2       1.0  0.50047  0.16631  0.49766  1.0000
  H   H1        1.0  0.59141  0.66554  0.27028  1.0000
  H   H2        1.0  0.11061  0.33668  0.72744  1.0000
  H   H3        1.0  0.09096  0.33429  0.27027  1.0000
  H   H4        1.0  0.61021  0.66356  0.72746  1.0000
  H   H5        1.0  0.79467  0.60739  0.09828  1.0000
  H   H6        1.0  0.30067  0.39418  0.89978  1.0000
  H   H7        1.0  0.29452  0.39257  0.09833  1.0000
  H   H8        1.0  0.80056  0.60597  0.89972  1.0000
  H   H9        1.0  0.02585  0.87395  0.09917  1.0000
  H   H10       1.0  0.53267  0.12642  0.89530  1.0000
  H   H11       1.0  0.52567  0.12598  0.09898  1.0000
  H   H12       1.0  0.03250  0.87361  0.89548  1.0000
  H   H13       1.0  0.06227  0.16850  0.54214  1.0000
  H   H14       1.0  0.56214  0.83125  0.54178  1.0000
  H   H15       1.0  0.85669  0.47673  0.56223  1.0000
  H   H16       1.0  0.33499  0.51321  0.43870  1.0000
  H   H17       1.0  0.35639  0.52306  0.56248  1.0000
  H   H18       1.0  0.83463  0.48704  0.43851  1.0000
  C   C1        1.0  0.17068  0.78505  0.29745  1.0000
  C   C2        1.0  0.69249  0.21611  0.69700  1.0000
  C   C3        1.0  0.67019  0.21479  0.29730  1.0000
  C   C4        1.0  0.19203  0.78398  0.69712  1.0000
  C   C5        1.0  0.29296  0.76703  0.19345  1.0000
  C   C6        1.0  0.80693  0.23233  0.80186  1.0000
  C   C7        1.0  0.79267  0.23285  0.19334  1.0000
  C   C8        1.0  0.30660  0.76777  0.80196  1.0000
  C   C9        1.0  0.51332  0.69459  0.19352  1.0000
  C   C10       1.0  0.02688  0.30555  0.80338  1.0000
  C   C11       1.0  0.01301  0.30528  0.19348  1.0000
  C   C12       1.0  0.52656  0.69459  0.80342  1.0000
  C   C13       1.0  0.62635  0.66455  0.09823  1.0000
  C   C14       1.0  0.13295  0.33603  0.89916  1.0000
  C   C15       1.0  0.12622  0.33542  0.09823  1.0000
  C   C16       1.0  0.63279  0.66408  0.89916  1.0000
  C   C17       1.0  0.52434  0.70347  0.99845  1.0000
  C   C18       1.0  0.02434  0.29655  0.99841  1.0000
  C   C19       1.0  0.30361  0.78191  0.99779  1.0000
  C   C20       1.0  0.80365  0.21810  0.99769  1.0000
  C   C21       1.0  0.19305  0.81483  0.09757  1.0000
  C   C22       1.0  0.69996  0.18524  0.89742  1.0000
  C   C23       1.0  0.69289  0.18510  0.09744  1.0000
  C   C24       1.0  0.19978  0.81480  0.89755  1.0000
  O   O1        1.0  0.15931  0.08468  0.50262  1.0000
  O   O2        1.0  0.65934  0.91538  0.50261  1.0000
  O   O3        1.0  0.98392  0.86468  0.30645  1.0000
  O   O4        1.0  0.49355  0.15754  0.68910  1.0000
  O   O5        1.0  0.48358  0.13495  0.30629  1.0000
  O   O6        1.0  0.99322  0.84278  0.68922  1.0000
  O   O7        1.0  0.26013  0.71510  0.38239  1.0000
  O   O8        1.0  0.79909  0.26770  0.61065  1.0000
  O   O9        1.0  0.75942  0.28496  0.38222  1.0000
  O   O10       1.0  0.29846  0.73218  0.61078  1.0000
  O   O11       1.0  0.84893  0.56497  0.50276  1.0000
  O   O12       1.0  0.34903  0.43505  0.50291  1.0000
