data_image0
_chemical_formula_structural       Zn2H42C38N10O8
_chemical_formula_sum              "Zn2 H42 C38 N10 O8"
_cell_length_a       9.13782
_cell_length_b       9.5496
_cell_length_c       11.1017
_cell_angle_alpha    90.0002
_cell_angle_beta     89.2305
_cell_angle_gamma    90.0005

_space_group_name_H-M_alt    "P 1"
_space_group_IT_number       1

loop_
  _space_group_symop_operation_xyz
  'x, y, z'

loop_
  _atom_site_type_symbol
  _atom_site_label
  _atom_site_symmetry_multiplicity
  _atom_site_fract_x
  _atom_site_fract_y
  _atom_site_fract_z
  _atom_site_occupancy
  Zn  Zn1       1.0  0.25000  0.84718  0.75000  1.0000
  Zn  Zn2       1.0  0.75000  0.15282  0.25000  1.0000
  H   H1        1.0  0.94774  0.74232  0.60479  1.0000
  H   H2        1.0  0.55227  0.74232  0.89521  1.0000
  H   H3        1.0  0.05227  0.25768  0.39521  1.0000
  H   H4        1.0  0.44772  0.25768  0.10479  1.0000
  H   H5        1.0  0.68976  0.80430  0.48846  1.0000
  H   H6        1.0  0.81024  0.80429  0.01154  1.0000
  H   H7        1.0  0.31023  0.19571  0.51154  1.0000
  H   H8        1.0  0.18976  0.19571  0.98846  1.0000
  H   H9        1.0  0.62866  0.98023  0.50285  1.0000
  H   H10       1.0  0.87134  0.98022  0.99715  1.0000
  H   H11       1.0  0.37134  0.01978  0.49715  1.0000
  H   H12       1.0  0.12865  0.01977  0.00285  1.0000
  H   H13       1.0  0.59944  0.85865  0.62195  1.0000
  H   H14       1.0  0.90056  0.85864  0.87806  1.0000
  H   H15       1.0  0.40055  0.14135  0.37805  1.0000
  H   H16       1.0  0.09944  0.14135  0.12194  1.0000
  H   H17       1.0  0.81148  0.16580  0.62299  1.0000
  H   H18       1.0  0.68853  0.16579  0.87702  1.0000
  H   H19       1.0  0.18852  0.83420  0.37702  1.0000
  H   H20       1.0  0.31146  0.83420  0.12299  1.0000
  H   H21       1.0  0.03460  0.34617  0.67150  1.0000
  H   H22       1.0  0.46542  0.34616  0.82850  1.0000
  H   H23       1.0  0.96540  0.65383  0.32850  1.0000
  H   H24       1.0  0.53458  0.65384  0.17150  1.0000
  H   H25       1.0  0.25001  0.47689  0.75000  1.0000
  H   H26       1.0  0.74999  0.52312  0.25000  1.0000
  H   H27       1.0  0.08163  0.70319  0.10359  1.0000
  H   H28       1.0  0.41837  0.70320  0.39642  1.0000
  H   H29       1.0  0.91837  0.29680  0.89641  1.0000
  H   H30       1.0  0.58164  0.29681  0.60358  1.0000
  H   H31       1.0  0.23397  0.59431  0.13996  1.0000
  H   H32       1.0  0.26604  0.59432  0.36004  1.0000
  H   H33       1.0  0.76603  0.40568  0.86004  1.0000
  H   H34       1.0  0.73398  0.40569  0.63995  1.0000
  H   H35       1.0  0.13558  0.40592  0.00828  1.0000
  H   H36       1.0  0.36443  0.40593  0.49171  1.0000
  H   H37       1.0  0.86443  0.59407  0.99171  1.0000
  H   H38       1.0  0.63557  0.59408  0.50829  1.0000
  H   H39       1.0  0.01793  0.44719  0.12974  1.0000
  H   H40       1.0  0.48208  0.44720  0.37027  1.0000
  H   H41       1.0  0.98208  0.55279  0.87026  1.0000
  H   H42       1.0  0.51793  0.55280  0.62974  1.0000
  C   C1        1.0  0.67722  0.89208  0.55137  1.0000
  C   C2        1.0  0.82279  0.89207  0.94863  1.0000
  C   C3        1.0  0.32278  0.10792  0.44863  1.0000
  C   C4        1.0  0.17721  0.10792  0.05137  1.0000
  C   C5        1.0  0.82033  0.93586  0.60087  1.0000
  C   C6        1.0  0.67968  0.93585  0.89913  1.0000
  C   C7        1.0  0.17967  0.06414  0.39913  1.0000
  C   C8        1.0  0.32031  0.06415  0.10087  1.0000
  C   C9        1.0  0.87127  0.06873  0.63113  1.0000
  C   C10       1.0  0.62874  0.06872  0.86887  1.0000
  C   C11       1.0  0.12873  0.93127  0.36887  1.0000
  C   C12       1.0  0.37126  0.93128  0.13114  1.0000
  C   C13       1.0  0.01443  0.04893  0.67306  1.0000
  C   C14       1.0  0.48558  0.04893  0.82694  1.0000
  C   C15       1.0  0.98557  0.95107  0.32695  1.0000
  C   C16       1.0  0.51441  0.95107  0.17306  1.0000
  C   C17       1.0  0.13064  0.14337  0.71219  1.0000
  C   C18       1.0  0.36937  0.14337  0.78781  1.0000
  C   C19       1.0  0.86936  0.85663  0.28782  1.0000
  C   C20       1.0  0.63062  0.85664  0.21219  1.0000
  C   C21       1.0  0.12789  0.29007  0.70816  1.0000
  C   C22       1.0  0.37213  0.29007  0.79184  1.0000
  C   C23       1.0  0.87211  0.70993  0.29184  1.0000
  C   C24       1.0  0.62787  0.70993  0.20816  1.0000
  C   C25       1.0  0.25001  0.36272  0.75000  1.0000
  C   C26       1.0  0.74999  0.63729  0.25000  1.0000
  C   C27       1.0  0.23616  0.67141  0.95810  1.0000
  C   C28       1.0  0.26382  0.67140  0.54190  1.0000
  C   C29       1.0  0.76384  0.32859  0.04190  1.0000
  C   C30       1.0  0.73616  0.32859  0.45810  1.0000
  C   C31       1.0  0.15390  0.61922  0.07001  1.0000
  C   C32       1.0  0.34611  0.61922  0.42999  1.0000
  C   C33       1.0  0.84611  0.38078  0.92999  1.0000
  C   C34       1.0  0.65391  0.38078  0.57000  1.0000
  C   C35       1.0  0.06235  0.48785  0.04404  1.0000
  C   C36       1.0  0.43766  0.48786  0.45595  1.0000
  C   C37       1.0  0.93766  0.51214  0.95595  1.0000
  C   C38       1.0  0.56235  0.51215  0.54405  1.0000
  N   N1        1.0  0.93123  0.84551  0.62702  1.0000
  N   N2        1.0  0.56878  0.84550  0.87298  1.0000
  N   N3        1.0  0.06877  0.15450  0.37298  1.0000
  N   N4        1.0  0.43122  0.15449  0.12702  1.0000
  N   N5        1.0  0.04853  0.91175  0.67000  1.0000
  N   N6        1.0  0.45147  0.91174  0.83000  1.0000
  N   N7        1.0  0.95147  0.08825  0.33001  1.0000
  N   N8        1.0  0.54852  0.08826  0.17000  1.0000
  N   N9        1.0  0.25001  0.07479  0.75000  1.0000
  N   N10       1.0  0.74999  0.92522  0.25000  1.0000
  O   O1        1.0  0.16015  0.75570  0.89164  1.0000
  O   O2        1.0  0.33983  0.75569  0.60837  1.0000
  O   O3        1.0  0.83985  0.24429  0.10836  1.0000
  O   O4        1.0  0.66016  0.24432  0.39163  1.0000
  O   O5        1.0  0.36417  0.63061  0.93592  1.0000
  O   O6        1.0  0.13582  0.63061  0.56407  1.0000
  O   O7        1.0  0.63584  0.36939  0.06408  1.0000
  O   O8        1.0  0.86418  0.36939  0.43592  1.0000
