data_image0
_chemical_formula_structural       NiH12C16O12
_chemical_formula_sum              "Ni1 H12 C16 O12"
_cell_length_a       4.93174
_cell_length_b       6.4013
_cell_length_c       12.31
_cell_angle_alpha    78.0216
_cell_angle_beta     85.4089
_cell_angle_gamma    86.5249

_space_group_name_H-M_alt    "P 1"
_space_group_IT_number       1

loop_
  _space_group_symop_operation_xyz
  'x, y, z'

loop_
  _atom_site_type_symbol
  _atom_site_label
  _atom_site_symmetry_multiplicity
  _atom_site_fract_x
  _atom_site_fract_y
  _atom_site_fract_z
  _atom_site_occupancy
  Ni  Ni1       1.0  1.00000  0.00000  0.50000  1.0000
  H   H1        1.0  0.39872  0.01336  0.62409  1.0000
  H   H2        1.0  0.60129  0.98665  0.37591  1.0000
  H   H3        1.0  0.12018  0.08042  0.68735  1.0000
  H   H4        1.0  0.87982  0.91958  0.31266  1.0000
  H   H5        1.0  0.92720  0.37871  0.43485  1.0000
  H   H6        1.0  0.07280  0.62129  0.56515  1.0000
  H   H7        1.0  0.75087  0.34245  0.54842  1.0000
  H   H8        1.0  0.24913  0.65756  0.45158  1.0000
  H   H9        1.0  0.57684  0.88559  0.84333  1.0000
  H   H10       1.0  0.42317  0.11440  0.15667  1.0000
  H   H11       1.0  0.66356  0.65243  0.28199  1.0000
  H   H12       1.0  0.33642  0.34758  0.71801  1.0000
  C   C1        1.0  0.90329  0.47742  0.04630  1.0000
  C   C2        1.0  0.09671  0.52256  0.95370  1.0000
  C   C3        1.0  0.44877  0.74907  0.85211  1.0000
  C   C4        1.0  0.55123  0.25092  0.14789  1.0000
  C   C5        1.0  0.68568  0.55687  0.21802  1.0000
  C   C6        1.0  0.31431  0.44314  0.78197  1.0000
  C   C7        1.0  0.32355  0.32459  0.32661  1.0000
  C   C8        1.0  0.67645  0.67542  0.67339  1.0000
  C   C9        1.0  0.05581  0.78426  0.11513  1.0000
  C   C10       1.0  0.94420  0.21572  0.88487  1.0000
  C   C11       1.0  0.87739  0.60504  0.12758  1.0000
  C   C12       1.0  0.12259  0.39495  0.87242  1.0000
  C   C13       1.0  0.26301  0.69609  0.94323  1.0000
  C   C14       1.0  0.73699  0.30390  0.05678  1.0000
  C   C15       1.0  0.52707  0.37901  0.22838  1.0000
  C   C16       1.0  0.47293  0.62099  0.77162  1.0000
  O   O1        1.0  0.05769  0.90983  0.17790  1.0000
  O   O2        1.0  0.94232  0.09017  0.82211  1.0000
  O   O3        1.0  0.22239  0.09812  0.61394  1.0000
  O   O4        1.0  0.77761  0.90189  0.38606  1.0000
  O   O5        1.0  0.78173  0.28599  0.47940  1.0000
  O   O6        1.0  0.21827  0.71402  0.52059  1.0000
  O   O7        1.0  0.19251  0.47813  0.35987  1.0000
  O   O8        1.0  0.80749  0.52187  0.64013  1.0000
  O   O9        1.0  0.29174  0.12553  0.36600  1.0000
  O   O10       1.0  0.70827  0.87446  0.63400  1.0000
  O   O11       1.0  0.24232  0.81951  0.02328  1.0000
  O   O12       1.0  0.75768  0.18048  0.97672  1.0000
