data_image0
_chemical_formula_structural       CdH24C34Br2N12
_chemical_formula_sum              "Cd1 H24 C34 Br2 N12"
_cell_length_a       8.21066
_cell_length_b       8.56884
_cell_length_c       13.1059
_cell_angle_alpha    99.34
_cell_angle_beta     97.7718
_cell_angle_gamma    113.85

_space_group_name_H-M_alt    "P 1"
_space_group_IT_number       1

loop_
  _space_group_symop_operation_xyz
  'x, y, z'

loop_
  _atom_site_type_symbol
  _atom_site_label
  _atom_site_symmetry_multiplicity
  _atom_site_fract_x
  _atom_site_fract_y
  _atom_site_fract_z
  _atom_site_occupancy
  Cd  Cd1       1.0  0.50000  0.50000  0.50000  1.0000
  H   H1        1.0  0.48166  0.30635  0.10813  1.0000
  H   H2        1.0  0.51833  0.69365  0.89187  1.0000
  H   H3        1.0  0.23631  0.01125  0.01309  1.0000
  H   H4        1.0  0.76369  0.98875  0.98690  1.0000
  H   H5        1.0  0.45904  0.01351  0.74832  1.0000
  H   H6        1.0  0.54096  0.98650  0.25168  1.0000
  H   H7        1.0  0.71517  0.30735  0.83109  1.0000
  H   H8        1.0  0.28483  0.69265  0.16891  1.0000
  H   H9        1.0  0.07284  0.10033  0.11419  1.0000
  H   H10       1.0  0.92716  0.89967  0.88581  1.0000
  H   H11       1.0  0.27430  0.36658  0.25816  1.0000
  H   H12       1.0  0.72569  0.63342  0.74184  1.0000
  H   H13       1.0  0.29189  0.06758  0.47412  1.0000
  H   H14       1.0  0.70811  0.93242  0.52588  1.0000
  H   H15       1.0  0.09730  0.78881  0.34067  1.0000
  H   H16       1.0  0.90270  0.21119  0.65933  1.0000
  H   H17       1.0  0.65324  0.64555  0.28259  1.0000
  H   H18       1.0  0.34675  0.35445  0.71740  1.0000
  H   H19       1.0  0.77398  0.33513  0.46232  1.0000
  H   H20       1.0  0.22602  0.66487  0.53768  1.0000
  H   H21       1.0  0.94428  0.25287  0.33398  1.0000
  H   H22       1.0  0.05572  0.74713  0.66602  1.0000
  H   H23       1.0  0.97207  0.38107  0.17366  1.0000
  H   H24       1.0  0.02793  0.61893  0.82634  1.0000
  C   C1        1.0  0.62341  0.33116  0.97814  1.0000
  C   C2        1.0  0.37660  0.66884  0.02186  1.0000
  C   C3        1.0  0.48508  0.24605  0.02920  1.0000
  C   C4        1.0  0.51492  0.75395  0.97080  1.0000
  C   C5        1.0  0.34602  0.08142  0.97570  1.0000
  C   C6        1.0  0.65398  0.91858  0.02430  1.0000
  C   C7        1.0  0.46896  0.08116  0.82882  1.0000
  C   C8        1.0  0.53105  0.91885  0.17118  1.0000
  C   C9        1.0  0.61396  0.24498  0.87525  1.0000
  C   C10       1.0  0.38604  0.75502  0.12475  1.0000
  C   C11       1.0  0.76775  0.50914  0.02217  1.0000
  C   C12       1.0  0.23225  0.49086  0.97783  1.0000
  C   C13       1.0  0.95654  0.76772  0.12617  1.0000
  C   C14       1.0  0.04346  0.23228  0.87383  1.0000
  C   C15       1.0  0.06532  0.91997  0.21473  1.0000
  C   C16       1.0  0.93468  0.08003  0.78527  1.0000
  C   C17       1.0  0.11956  0.08680  0.19261  1.0000
  C   C18       1.0  0.88044  0.91320  0.80739  1.0000
  C   C19       1.0  0.23121  0.23520  0.27259  1.0000
  C   C20       1.0  0.76879  0.76480  0.72741  1.0000
  C   C21       1.0  0.23727  0.06868  0.39369  1.0000
  C   C22       1.0  0.76273  0.93132  0.60631  1.0000
  C   C23       1.0  0.12648  0.91235  0.31816  1.0000
  C   C24       1.0  0.87352  0.08766  0.68184  1.0000
  C   C25       1.0  0.81713  0.52342  0.21791  1.0000
  C   C26       1.0  0.18286  0.47658  0.78209  1.0000
  C   C27       1.0  0.72201  0.56109  0.29172  1.0000
  C   C28       1.0  0.27799  0.43891  0.70828  1.0000
  C   C29       1.0  0.78982  0.38646  0.39137  1.0000
  C   C30       1.0  0.21018  0.61354  0.60863  1.0000
  C   C31       1.0  0.88367  0.34150  0.32027  1.0000
  C   C32       1.0  0.11633  0.65850  0.67973  1.0000
  C   C33       1.0  0.89847  0.41114  0.23132  1.0000
  C   C34       1.0  0.10153  0.58886  0.76868  1.0000
  Br  Br1       1.0  0.39548  0.69338  0.38505  1.0000
  Br  Br2       1.0  0.60452  0.30662  0.61495  1.0000
  N   N1        1.0  0.33572  0.99899  0.87715  1.0000
  N   N2        1.0  0.66428  0.00101  0.12285  1.0000
  N   N3        1.0  0.84539  0.61586  0.96161  1.0000
  N   N4        1.0  0.15461  0.38413  0.03839  1.0000
  N   N5        1.0  0.96148  0.77568  0.02606  1.0000
  N   N6        1.0  0.03852  0.22432  0.97394  1.0000
  N   N7        1.0  0.83561  0.59946  0.12780  1.0000
  N   N8        1.0  0.16439  0.40054  0.87219  1.0000
  N   N9        1.0  0.28888  0.22759  0.37216  1.0000
  N   N10       1.0  0.71112  0.77241  0.62784  1.0000
  N   N11       1.0  0.70964  0.49343  0.37731  1.0000
  N   N12       1.0  0.29036  0.50657  0.62269  1.0000
