data_image0
_chemical_formula_structural       Cd3H24C34N12Cl6
_chemical_formula_sum              "Cd3 H24 C34 N12 Cl6"
_cell_length_a       8.22269
_cell_length_b       10.8034
_cell_length_c       11.5219
_cell_angle_alpha    70.9815
_cell_angle_beta     85.0257
_cell_angle_gamma    82.1052

_space_group_name_H-M_alt    "P 1"
_space_group_IT_number       1

loop_
  _space_group_symop_operation_xyz
  'x, y, z'

loop_
  _atom_site_type_symbol
  _atom_site_label
  _atom_site_symmetry_multiplicity
  _atom_site_fract_x
  _atom_site_fract_y
  _atom_site_fract_z
  _atom_site_occupancy
  Cd  Cd1       1.0  0.00000  1.00000  0.50000  1.0000
  Cd  Cd2       1.0  0.09405  0.22582  0.65018  1.0000
  Cd  Cd3       1.0  0.90596  0.77418  0.34982  1.0000
  H   H1        1.0  0.20205  0.57249  0.19933  1.0000
  H   H2        1.0  0.79795  0.42751  0.80068  1.0000
  H   H3        1.0  0.03786  0.46395  0.38533  1.0000
  H   H4        1.0  0.96214  0.53605  0.61467  1.0000
  H   H5        1.0  0.45562  0.26712  0.57390  1.0000
  H   H6        1.0  0.54439  0.73288  0.42609  1.0000
  H   H7        1.0  0.63842  0.36515  0.39412  1.0000
  H   H8        1.0  0.36158  0.63485  0.60588  1.0000
  H   H9        1.0  0.98445  0.61641  0.92462  1.0000
  H   H10       1.0  0.01555  0.38359  0.07538  1.0000
  H   H11       1.0  0.10145  0.76215  0.73069  1.0000
  H   H12       1.0  0.89854  0.23785  0.26931  1.0000
  H   H13       1.0  0.63949  0.95320  0.62019  1.0000
  H   H14       1.0  0.36051  0.04680  0.37981  1.0000
  H   H15       1.0  0.50166  0.81338  0.80620  1.0000
  H   H16       1.0  0.49834  0.18662  0.19380  1.0000
  H   H17       1.0  0.27695  0.74493  0.93078  1.0000
  H   H18       1.0  0.72305  0.25507  0.06922  1.0000
  H   H19       1.0  0.11706  0.96210  0.92834  1.0000
  H   H20       1.0  0.88293  0.03789  0.07167  1.0000
  H   H21       1.0  0.19417  0.07639  0.06801  1.0000
  H   H22       1.0  0.80583  0.92361  0.93200  1.0000
  H   H23       1.0  0.57399  0.78160  0.20520  1.0000
  H   H24       1.0  0.42601  0.21839  0.79480  1.0000
  C   C1        1.0  0.26503  0.50768  0.28028  1.0000
  C   C2        1.0  0.73497  0.49232  0.71972  1.0000
  C   C3        1.0  0.17179  0.44711  0.38513  1.0000
  C   C4        1.0  0.82821  0.55290  0.61487  1.0000
  C   C5        1.0  0.40402  0.33637  0.48985  1.0000
  C   C6        1.0  0.59598  0.66363  0.51015  1.0000
  C   C7        1.0  0.50599  0.39109  0.38928  1.0000
  C   C8        1.0  0.49401  0.60891  0.61072  1.0000
  C   C9        1.0  0.43614  0.47635  0.28075  1.0000
  C   C10       1.0  0.56386  0.52365  0.71925  1.0000
  C   C11       1.0  0.54627  0.51376  0.17184  1.0000
  C   C12       1.0  0.45373  0.48624  0.82815  1.0000
  C   C13       1.0  0.67031  0.61052  0.99599  1.0000
  C   C14       1.0  0.32969  0.38948  0.00401  1.0000
  C   C15       1.0  0.73213  0.70303  0.88282  1.0000
  C   C16       1.0  0.26787  0.29697  0.11718  1.0000
  C   C17       1.0  0.90351  0.68926  0.85932  1.0000
  C   C18       1.0  0.09649  0.31074  0.14068  1.0000
  C   C19       1.0  0.96940  0.77056  0.75147  1.0000
  C   C20       1.0  0.03060  0.22944  0.24853  1.0000
  C   C21       1.0  0.71135  0.87710  0.68970  1.0000
  C   C22       1.0  0.28865  0.12290  0.31030  1.0000
  C   C23       1.0  0.63475  0.79859  0.79533  1.0000
  C   C24       1.0  0.36525  0.20141  0.20467  1.0000
  C   C25       1.0  0.43604  0.74976  0.06884  1.0000
  C   C26       1.0  0.56396  0.25024  0.93117  1.0000
  C   C27       1.0  0.30654  0.79874  0.98982  1.0000
  C   C28       1.0  0.69346  0.20126  0.01018  1.0000
  C   C29       1.0  0.21779  0.91818  0.98961  1.0000
  C   C30       1.0  0.78221  0.08182  0.01039  1.0000
  C   C31       1.0  0.26098  0.98168  0.06822  1.0000
  C   C32       1.0  0.73901  0.01831  0.93179  1.0000
  C   C33       1.0  0.47041  0.81956  0.14515  1.0000
  C   C34       1.0  0.52959  0.18043  0.85485  1.0000
  N   N1        1.0  0.23885  0.36183  0.48776  1.0000
  N   N2        1.0  0.76115  0.63818  0.51224  1.0000
  N   N3        1.0  0.67191  0.42991  0.15238  1.0000
  N   N4        1.0  0.32809  0.57009  0.84762  1.0000
  N   N5        1.0  0.74852  0.49010  0.04308  1.0000
  N   N6        1.0  0.25148  0.50990  0.95692  1.0000
  N   N7        1.0  0.53787  0.62908  0.07376  1.0000
  N   N8        1.0  0.46213  0.37092  0.92624  1.0000
  N   N9        1.0  0.87484  0.86364  0.66821  1.0000
  N   N10       1.0  0.12516  0.13636  0.33179  1.0000
  N   N11       1.0  0.38438  0.93361  0.14548  1.0000
  N   N12       1.0  0.61562  0.06638  0.85452  1.0000
  Cl  Cl1       1.0  0.83799  0.21378  0.55574  1.0000
  Cl  Cl2       1.0  0.16201  0.78623  0.44426  1.0000
  Cl  Cl3       1.0  0.24589  0.00860  0.64278  1.0000
  Cl  Cl4       1.0  0.75411  0.99140  0.35721  1.0000
  Cl  Cl5       1.0  0.09740  0.29202  0.82996  1.0000
  Cl  Cl6       1.0  0.90260  0.70797  0.17004  1.0000
