data_image0
_chemical_formula_structural       Ag8H20C20S4N4Cl8
_chemical_formula_sum              "Ag8 H20 C20 S4 N4 Cl8"
_cell_length_a       4.21301
_cell_length_b       10.4141
_cell_length_c       18.943
_cell_angle_alpha    90
_cell_angle_beta     92.294
_cell_angle_gamma    90

_space_group_name_H-M_alt    "P 1"
_space_group_IT_number       1

loop_
  _space_group_symop_operation_xyz
  'x, y, z'

loop_
  _atom_site_type_symbol
  _atom_site_label
  _atom_site_symmetry_multiplicity
  _atom_site_fract_x
  _atom_site_fract_y
  _atom_site_fract_z
  _atom_site_occupancy
  Ag  Ag1       1.0  0.22392  0.14951  0.47825  1.0000
  Ag  Ag2       1.0  0.77609  0.64951  0.02175  1.0000
  Ag  Ag3       1.0  0.77608  0.85049  0.52175  1.0000
  Ag  Ag4       1.0  0.22392  0.35049  0.97825  1.0000
  Ag  Ag5       1.0  0.75952  0.36701  0.45801  1.0000
  Ag  Ag6       1.0  0.24049  0.86701  0.04199  1.0000
  Ag  Ag7       1.0  0.24049  0.63299  0.54199  1.0000
  Ag  Ag8       1.0  0.75952  0.13299  0.95801  1.0000
  H   H1        1.0  0.66721  0.24522  0.80608  1.0000
  H   H2        1.0  0.33279  0.74522  0.69391  1.0000
  H   H3        1.0  0.33279  0.75478  0.19391  1.0000
  H   H4        1.0  0.66721  0.25478  0.30609  1.0000
  H   H5        1.0  0.27857  0.47001  0.68598  1.0000
  H   H6        1.0  0.72144  0.97001  0.81402  1.0000
  H   H7        1.0  0.72143  0.52999  0.31402  1.0000
  H   H8        1.0  0.27857  0.02999  0.18598  1.0000
  H   H9        1.0  0.03497  0.41553  0.80281  1.0000
  H   H10       1.0  0.96504  0.91553  0.69719  1.0000
  H   H11       1.0  0.96503  0.58447  0.19719  1.0000
  H   H12       1.0  0.03497  0.08447  0.30281  1.0000
  H   H13       1.0  0.51518  0.11612  0.71146  1.0000
  H   H14       1.0  0.48482  0.61612  0.78854  1.0000
  H   H15       1.0  0.48482  0.88387  0.28854  1.0000
  H   H16       1.0  0.51517  0.38388  0.21146  1.0000
  H   H17       1.0  0.73888  0.15385  0.59308  1.0000
  H   H18       1.0  0.26113  0.65385  0.90692  1.0000
  H   H19       1.0  0.26113  0.84615  0.40692  1.0000
  H   H20       1.0  0.73888  0.34615  0.09308  1.0000
  C   C1        1.0  0.11048  0.39118  0.69005  1.0000
  C   C2        1.0  0.88953  0.89118  0.80995  1.0000
  C   C3        1.0  0.88952  0.60882  0.30995  1.0000
  C   C4        1.0  0.11048  0.10882  0.19005  1.0000
  C   C5        1.0  0.98222  0.36313  0.75398  1.0000
  C   C6        1.0  0.01779  0.86314  0.74602  1.0000
  C   C7        1.0  0.01778  0.63686  0.24601  1.0000
  C   C8        1.0  0.98222  0.13687  0.25398  1.0000
  C   C9        1.0  0.02389  0.31789  0.62941  1.0000
  C   C10       1.0  0.97612  0.81789  0.87060  1.0000
  C   C11       1.0  0.97611  0.68211  0.37059  1.0000
  C   C12       1.0  0.02389  0.18211  0.12941  1.0000
  C   C13       1.0  0.68717  0.19173  0.70242  1.0000
  C   C14       1.0  0.31283  0.69173  0.79757  1.0000
  C   C15       1.0  0.31281  0.80827  0.29757  1.0000
  C   C16       1.0  0.68717  0.30827  0.20243  1.0000
  C   C17       1.0  0.81026  0.21489  0.63747  1.0000
  C   C18       1.0  0.18975  0.71489  0.86253  1.0000
  C   C19       1.0  0.18974  0.78511  0.36253  1.0000
  C   C20       1.0  0.81025  0.28511  0.13747  1.0000
  S   S1        1.0  0.18454  0.35517  0.54915  1.0000
  S   S2        1.0  0.81546  0.85517  0.95085  1.0000
  S   S3        1.0  0.81546  0.64483  0.45085  1.0000
  S   S4        1.0  0.18454  0.14483  0.04915  1.0000
  N   N1        1.0  0.77231  0.26572  0.75870  1.0000
  N   N2        1.0  0.22769  0.76572  0.74130  1.0000
  N   N3        1.0  0.22768  0.73428  0.24130  1.0000
  N   N4        1.0  0.77231  0.23428  0.25870  1.0000
  Cl  Cl1       1.0  0.29418  0.95809  0.58232  1.0000
  Cl  Cl2       1.0  0.70582  0.45809  0.91768  1.0000
  Cl  Cl3       1.0  0.70582  0.04191  0.41768  1.0000
  Cl  Cl4       1.0  0.29418  0.54191  0.08232  1.0000
  Cl  Cl5       1.0  0.33577  0.36230  0.36525  1.0000
  Cl  Cl6       1.0  0.66423  0.86230  0.13475  1.0000
  Cl  Cl7       1.0  0.66423  0.63770  0.63475  1.0000
  Cl  Cl8       1.0  0.33577  0.13770  0.86525  1.0000
