data_image0
_chemical_formula_structural       Cu4H8C12S4N4
_chemical_formula_sum              "Cu4 H8 C12 S4 N4"
_cell_length_a       7.18874
_cell_length_b       7.70736
_cell_length_c       7.70741
_cell_angle_alpha    114.091
_cell_angle_beta     89.9994
_cell_angle_gamma    89.9993

_space_group_name_H-M_alt    "P 1"
_space_group_IT_number       1

loop_
  _space_group_symop_operation_xyz
  'x, y, z'

loop_
  _atom_site_type_symbol
  _atom_site_label
  _atom_site_symmetry_multiplicity
  _atom_site_fract_x
  _atom_site_fract_y
  _atom_site_fract_z
  _atom_site_occupancy
  Cu  Cu1       1.0  0.25000  0.70207  0.56345  1.0000
  Cu  Cu2       1.0  0.74999  0.43655  0.29793  1.0000
  Cu  Cu3       1.0  1.00000  0.00451  0.99548  1.0000
  Cu  Cu4       1.0  0.50000  0.00453  0.99547  1.0000
  H   H1        1.0  0.25000  0.65845  0.92245  1.0000
  H   H2        1.0  0.75000  0.07756  0.34155  1.0000
  H   H3        1.0  0.24998  0.39958  0.03357  1.0000
  H   H4        1.0  0.75001  0.96643  0.60041  1.0000
  H   H5        1.0  0.25000  0.00127  0.44341  1.0000
  H   H6        1.0  0.75001  0.55659  0.99872  1.0000
  H   H7        1.0  0.25002  0.27729  0.35543  1.0000
  H   H8        1.0  0.74999  0.64458  0.72271  1.0000
  C   C1        1.0  0.25000  0.51106  0.82031  1.0000
  C   C2        1.0  0.75000  0.17969  0.48894  1.0000
  C   C3        1.0  0.24999  0.36533  0.88179  1.0000
  C   C4        1.0  0.75001  0.11822  0.63466  1.0000
  C   C5        1.0  0.25000  0.17701  0.74619  1.0000
  C   C6        1.0  0.75001  0.25382  0.82299  1.0000
  C   C7        1.0  0.25000  0.14494  0.55386  1.0000
  C   C8        1.0  0.75000  0.44615  0.85506  1.0000
  C   C9        1.0  0.25001  0.29893  0.50454  1.0000
  C   C10       1.0  0.74999  0.49548  0.70107  1.0000
  C   C11       1.0  1.00000  0.76783  0.23216  1.0000
  C   C12       1.0  0.50000  0.76785  0.23214  1.0000
  S   S1        1.0  0.25000  0.98580  0.81735  1.0000
  S   S2        1.0  0.75001  0.18266  0.01419  1.0000
  S   S3        1.0  1.00000  0.64148  0.35852  1.0000
  S   S4        1.0  0.49999  0.64149  0.35850  1.0000
  N   N1        1.0  0.25001  0.48098  0.63483  1.0000
  N   N2        1.0  0.74999  0.36518  0.51902  1.0000
  N   N3        1.0  1.00000  0.85935  0.14064  1.0000
  N   N4        1.0  0.50000  0.85936  0.14063  1.0000
