data_image0
_chemical_formula_structural       Cd6H16C16N12Cl4O8
_chemical_formula_sum              "Cd6 H16 C16 N12 Cl4 O8"
_cell_length_a       6.76754
_cell_length_b       8.19772
_cell_length_c       14.236
_cell_angle_alpha    89.9999
_cell_angle_beta     89.9999
_cell_angle_gamma    110.181

_space_group_name_H-M_alt    "P 1"
_space_group_IT_number       1

loop_
  _space_group_symop_operation_xyz
  'x, y, z'

loop_
  _atom_site_type_symbol
  _atom_site_label
  _atom_site_symmetry_multiplicity
  _atom_site_fract_x
  _atom_site_fract_y
  _atom_site_fract_z
  _atom_site_occupancy
  Cd  Cd1       1.0  0.70189  0.82838  0.71849  1.0000
  Cd  Cd2       1.0  0.29812  0.67163  0.21849  1.0000
  Cd  Cd3       1.0  0.29811  0.17162  0.28152  1.0000
  Cd  Cd4       1.0  0.70188  0.32838  0.78151  1.0000
  Cd  Cd5       1.0  0.50000  0.50000  0.50000  1.0000
  Cd  Cd6       1.0  0.50000  1.00000  0.00000  1.0000
  H   H1        1.0  0.62766  0.17005  0.44965  1.0000
  H   H2        1.0  0.37235  0.32995  0.94965  1.0000
  H   H3        1.0  0.37234  0.82995  0.55035  1.0000
  H   H4        1.0  0.62765  0.67005  0.05035  1.0000
  H   H5        1.0  0.73408  0.01858  0.49949  1.0000
  H   H6        1.0  0.26593  0.48142  0.99949  1.0000
  H   H7        1.0  0.26592  0.98142  0.50051  1.0000
  H   H8        1.0  0.73408  0.51858  0.00051  1.0000
  H   H9        1.0  0.19632  0.66617  0.82350  1.0000
  H   H10       1.0  0.80367  0.83383  0.32350  1.0000
  H   H11       1.0  0.80368  0.33383  0.17650  1.0000
  H   H12       1.0  0.19633  0.16617  0.67650  1.0000
  H   H13       1.0  0.99864  0.64226  0.41818  1.0000
  H   H14       1.0  0.00136  0.85774  0.91818  1.0000
  H   H15       1.0  0.00136  0.35774  0.58182  1.0000
  H   H16       1.0  0.99865  0.14226  0.08182  1.0000
  C   C1        1.0  0.60747  0.07310  0.50502  1.0000
  C   C2        1.0  0.39253  0.42690  0.00503  1.0000
  C   C3        1.0  0.39253  0.92690  0.49497  1.0000
  C   C4        1.0  0.60747  0.57310  0.99498  1.0000
  C   C5        1.0  0.19229  0.60786  0.75479  1.0000
  C   C6        1.0  0.80771  0.89215  0.25479  1.0000
  C   C7        1.0  0.80771  0.39215  0.24520  1.0000
  C   C8        1.0  0.19229  0.10786  0.74520  1.0000
  C   C9        1.0  0.90711  0.54935  0.36689  1.0000
  C   C10       1.0  0.09288  0.95065  0.86689  1.0000
  C   C11       1.0  0.09288  0.45065  0.63311  1.0000
  C   C12       1.0  0.90712  0.04934  0.13311  1.0000
  C   C13       1.0  0.62414  0.16122  0.59930  1.0000
  C   C14       1.0  0.37587  0.33878  0.09931  1.0000
  C   C15       1.0  0.37586  0.83878  0.40069  1.0000
  C   C16       1.0  0.62413  0.66122  0.90070  1.0000
  N   N1        1.0  0.97682  0.51760  0.28226  1.0000
  N   N2        1.0  0.02318  0.98240  0.78226  1.0000
  N   N3        1.0  0.02318  0.48240  0.71774  1.0000
  N   N4        1.0  0.97682  0.01760  0.21774  1.0000
  N   N5        1.0  0.70714  0.45157  0.38159  1.0000
  N   N6        1.0  0.29286  0.04843  0.88160  1.0000
  N   N7        1.0  0.29286  0.54843  0.61840  1.0000
  N   N8        1.0  0.70714  0.95157  0.11840  1.0000
  N   N9        1.0  0.35700  0.65111  0.69661  1.0000
  N   N10       1.0  0.64300  0.84889  0.19661  1.0000
  N   N11       1.0  0.64300  0.34888  0.30339  1.0000
  N   N12       1.0  0.35700  0.15112  0.80339  1.0000
  Cl  Cl1       1.0  0.83717  0.74715  0.56372  1.0000
  Cl  Cl2       1.0  0.16283  0.75285  0.06371  1.0000
  Cl  Cl3       1.0  0.16283  0.25285  0.43629  1.0000
  Cl  Cl4       1.0  0.83717  0.24715  0.93629  1.0000
  O   O1        1.0  0.68457  0.09565  0.67110  1.0000
  O   O2        1.0  0.31543  0.40435  0.17110  1.0000
  O   O3        1.0  0.31543  0.90435  0.32890  1.0000
  O   O4        1.0  0.68457  0.59565  0.82890  1.0000
  O   O5        1.0  0.41742  0.69939  0.39155  1.0000
  O   O6        1.0  0.58258  0.80061  0.89155  1.0000
  O   O7        1.0  0.58258  0.30061  0.60845  1.0000
  O   O8        1.0  0.41741  0.19939  0.10845  1.0000
