data_image0
_chemical_formula_structural       Zn8H16C24N24O16
_chemical_formula_sum              "Zn8 H16 C24 N24 O16"
_cell_length_a       7.67054
_cell_length_b       9.74965
_cell_length_c       13.4922
_cell_angle_alpha    89.9999
_cell_angle_beta     90.0001
_cell_angle_gamma    90

_space_group_name_H-M_alt    "P 1"
_space_group_IT_number       1

loop_
  _space_group_symop_operation_xyz
  'x, y, z'

loop_
  _atom_site_type_symbol
  _atom_site_label
  _atom_site_symmetry_multiplicity
  _atom_site_fract_x
  _atom_site_fract_y
  _atom_site_fract_z
  _atom_site_occupancy
  Zn  Zn1       1.0  0.57491  0.94186  0.00084  1.0000
  Zn  Zn2       1.0  0.42509  0.05813  0.50084  1.0000
  Zn  Zn3       1.0  0.92509  0.44186  0.00084  1.0000
  Zn  Zn4       1.0  0.07491  0.55814  0.50084  1.0000
  Zn  Zn5       1.0  0.98694  0.74452  0.73010  1.0000
  Zn  Zn6       1.0  0.01306  0.25548  0.23010  1.0000
  Zn  Zn7       1.0  0.51306  0.24452  0.73010  1.0000
  Zn  Zn8       1.0  0.48694  0.75548  0.23010  1.0000
  H   H1        1.0  0.26248  0.17863  0.05026  1.0000
  H   H2        1.0  0.73751  0.82137  0.55026  1.0000
  H   H3        1.0  0.23752  0.67863  0.05026  1.0000
  H   H4        1.0  0.76248  0.32137  0.55026  1.0000
  H   H5        1.0  0.35639  0.60753  0.73654  1.0000
  H   H6        1.0  0.64361  0.39247  0.23654  1.0000
  H   H7        1.0  0.14361  0.10753  0.73654  1.0000
  H   H8        1.0  0.85639  0.89247  0.23654  1.0000
  H   H9        1.0  0.16703  0.93590  0.90756  1.0000
  H   H10       1.0  0.83297  0.06410  0.40756  1.0000
  H   H11       1.0  0.33298  0.43590  0.90756  1.0000
  H   H12       1.0  0.66703  0.56410  0.40756  1.0000
  H   H13       1.0  0.19682  0.97040  0.32081  1.0000
  H   H14       1.0  0.80318  0.02960  0.82081  1.0000
  H   H15       1.0  0.30317  0.47040  0.32081  1.0000
  H   H16       1.0  0.69682  0.52960  0.82082  1.0000
  C   C1        1.0  0.27659  0.10565  0.11056  1.0000
  C   C2        1.0  0.72341  0.89435  0.61056  1.0000
  C   C3        1.0  0.22341  0.60565  0.11056  1.0000
  C   C4        1.0  0.77658  0.39435  0.61056  1.0000
  C   C5        1.0  0.34951  0.69023  0.79057  1.0000
  C   C6        1.0  0.65048  0.30977  0.29057  1.0000
  C   C7        1.0  0.15049  0.19023  0.79057  1.0000
  C   C8        1.0  0.84951  0.80977  0.29057  1.0000
  C   C9        1.0  0.25174  0.85779  0.87639  1.0000
  C   C10       1.0  0.74826  0.14220  0.37639  1.0000
  C   C11       1.0  0.24826  0.35780  0.87639  1.0000
  C   C12       1.0  0.75175  0.64220  0.37639  1.0000
  C   C13       1.0  0.82373  0.72145  0.96600  1.0000
  C   C14       1.0  0.17626  0.27855  0.46600  1.0000
  C   C15       1.0  0.67627  0.22145  0.96600  1.0000
  C   C16       1.0  0.32373  0.77855  0.46600  1.0000
  C   C17       1.0  0.71500  0.67448  0.05717  1.0000
  C   C18       1.0  0.28500  0.32552  0.55717  1.0000
  C   C19       1.0  0.78500  0.17449  0.05718  1.0000
  C   C20       1.0  0.21500  0.82552  0.55717  1.0000
  C   C21       1.0  0.24308  0.00064  0.24834  1.0000
  C   C22       1.0  0.75692  0.99936  0.74834  1.0000
  C   C23       1.0  0.25692  0.50064  0.24834  1.0000
  C   C24       1.0  0.74308  0.49936  0.74834  1.0000
  N   N1        1.0  0.48018  0.72769  0.84901  1.0000
  N   N2        1.0  0.51982  0.27231  0.34901  1.0000
  N   N3        1.0  0.01982  0.22769  0.84900  1.0000
  N   N4        1.0  0.98018  0.77231  0.34900  1.0000
  N   N5        1.0  0.38575  0.00012  0.10876  1.0000
  N   N6        1.0  0.61425  0.99988  0.60877  1.0000
  N   N7        1.0  0.11425  0.50012  0.10877  1.0000
  N   N8        1.0  0.88575  0.49988  0.60877  1.0000
  N   N9        1.0  0.20351  0.76803  0.80508  1.0000
  N   N10       1.0  0.79649  0.23196  0.30508  1.0000
  N   N11       1.0  0.29649  0.26803  0.80508  1.0000
  N   N12       1.0  0.70351  0.73196  0.30508  1.0000
  N   N13       1.0  0.36436  0.93287  0.19764  1.0000
  N   N14       1.0  0.63564  0.06713  0.69764  1.0000
  N   N15       1.0  0.13564  0.43287  0.19764  1.0000
  N   N16       1.0  0.86436  0.56713  0.69764  1.0000
  N   N17       1.0  0.41677  0.83620  0.90362  1.0000
  N   N18       1.0  0.58323  0.16380  0.40362  1.0000
  N   N19       1.0  0.08323  0.33621  0.90362  1.0000
  N   N20       1.0  0.91677  0.66380  0.40362  1.0000
  N   N21       1.0  0.18498  0.11003  0.19672  1.0000
  N   N22       1.0  0.81503  0.88997  0.69672  1.0000
  N   N23       1.0  0.31503  0.61003  0.19672  1.0000
  N   N24       1.0  0.68497  0.38997  0.69672  1.0000
  O   O1        1.0  0.81102  0.84440  0.93842  1.0000
  O   O2        1.0  0.18898  0.15560  0.43842  1.0000
  O   O3        1.0  0.68898  0.34440  0.93842  1.0000
  O   O4        1.0  0.31102  0.65560  0.43842  1.0000
  O   O5        1.0  0.73412  0.55588  0.09060  1.0000
  O   O6        1.0  0.26589  0.44412  0.59061  1.0000
  O   O7        1.0  0.76589  0.05588  0.09061  1.0000
  O   O8        1.0  0.23412  0.94412  0.59061  1.0000
  O   O9        1.0  0.61144  0.76575  0.09246  1.0000
  O   O10       1.0  0.38856  0.23425  0.59246  1.0000
  O   O11       1.0  0.88856  0.26575  0.09246  1.0000
  O   O12       1.0  0.11144  0.73425  0.59246  1.0000
  O   O13       1.0  0.92028  0.63051  0.92619  1.0000
  O   O14       1.0  0.07972  0.36950  0.42619  1.0000
  O   O15       1.0  0.57972  0.13050  0.92619  1.0000
  O   O16       1.0  0.42028  0.86950  0.42619  1.0000
