data_image0
_chemical_formula_structural       Cu8H10C10S2I8N2
_chemical_formula_sum              "Cu8 H10 C10 S2 I8 N2"
_cell_length_a       4.01684
_cell_length_b       11.0794
_cell_length_c       15.4609
_cell_angle_alpha    93.9116
_cell_angle_beta     91.6476
_cell_angle_gamma    98.4002

_space_group_name_H-M_alt    "P 1"
_space_group_IT_number       1

loop_
  _space_group_symop_operation_xyz
  'x, y, z'

loop_
  _atom_site_type_symbol
  _atom_site_label
  _atom_site_symmetry_multiplicity
  _atom_site_fract_x
  _atom_site_fract_y
  _atom_site_fract_z
  _atom_site_occupancy
  Cu  Cu1       1.0  0.78004  0.57694  0.48392  1.0000
  Cu  Cu2       1.0  0.21998  0.42306  0.51608  1.0000
  Cu  Cu3       1.0  0.87022  0.71165  0.65161  1.0000
  Cu  Cu4       1.0  0.12979  0.28834  0.34839  1.0000
  Cu  Cu5       1.0  0.42470  0.69344  0.85754  1.0000
  Cu  Cu6       1.0  0.57532  0.30656  0.14245  1.0000
  Cu  Cu7       1.0  0.76577  0.55927  0.96326  1.0000
  Cu  Cu8       1.0  0.23425  0.44072  0.03674  1.0000
  H   H1        1.0  0.45793  0.91890  0.86787  1.0000
  H   H2        1.0  0.54207  0.08110  0.13213  1.0000
  H   H3        1.0  0.48445  0.95480  0.60097  1.0000
  H   H4        1.0  0.51556  0.04520  0.39903  1.0000
  H   H5        1.0  0.58932  0.18050  0.62969  1.0000
  H   H6        1.0  0.41070  0.81950  0.37031  1.0000
  H   H7        1.0  0.62088  0.27355  0.78365  1.0000
  H   H8        1.0  0.37905  0.72645  0.21634  1.0000
  H   H9        1.0  0.54479  0.12974  0.90453  1.0000
  H   H10       1.0  0.45514  0.87026  0.09547  1.0000
  C   C1        1.0  0.46525  0.92019  0.73615  1.0000
  C   C2        1.0  0.53478  0.07981  0.26385  1.0000
  C   C3        1.0  0.50071  0.99630  0.66707  1.0000
  C   C4        1.0  0.49933  0.00369  0.33293  1.0000
  C   C5        1.0  0.55865  0.12244  0.68391  1.0000
  C   C6        1.0  0.44131  0.87756  0.31609  1.0000
  C   C7        1.0  0.57725  0.17488  0.76949  1.0000
  C   C8        1.0  0.42273  0.82512  0.23051  1.0000
  C   C9        1.0  0.53715  0.09859  0.83614  1.0000
  C   C10       1.0  0.46284  0.90142  0.16386  1.0000
  S   S1        1.0  0.39904  0.76043  0.72396  1.0000
  S   S2        1.0  0.60098  0.23957  0.27604  1.0000
  I   I1        1.0  0.74947  0.47218  0.63137  1.0000
  I   I2        1.0  0.25056  0.52782  0.36864  1.0000
  I   I3        1.0  0.91167  0.81314  0.50576  1.0000
  I   I4        1.0  0.08836  0.18685  0.49424  1.0000
  I   I5        1.0  0.93963  0.79960  0.95751  1.0000
  I   I6        1.0  0.06037  0.20040  0.04249  1.0000
  I   I7        1.0  0.22038  0.46224  0.86749  1.0000
  I   I8        1.0  0.77963  0.53776  0.13252  1.0000
  N   N1        1.0  0.48472  0.97595  0.81793  1.0000
  N   N2        1.0  0.51525  0.02405  0.18207  1.0000
