data_image0
_chemical_formula_structural       H20Pd2C20I12N4
_chemical_formula_sum              "H20 Pd2 C20 I12 N4"
_cell_length_a       5.85542
_cell_length_b       10.6966
_cell_length_c       17.1744
_cell_angle_alpha    76.1027
_cell_angle_beta     80.248
_cell_angle_gamma    74.0917

_space_group_name_H-M_alt    "P 1"
_space_group_IT_number       1

loop_
  _space_group_symop_operation_xyz
  'x, y, z'

loop_
  _atom_site_type_symbol
  _atom_site_label
  _atom_site_symmetry_multiplicity
  _atom_site_fract_x
  _atom_site_fract_y
  _atom_site_fract_z
  _atom_site_occupancy
  H   H1        1.0  0.18556  0.14891  0.36975  1.0000
  H   H2        1.0  0.70324  0.35179  0.13024  1.0000
  H   H3        1.0  0.81445  0.85109  0.63025  1.0000
  H   H4        1.0  0.29675  0.64822  0.86976  1.0000
  H   H5        1.0  0.22007  0.18510  0.21890  1.0000
  H   H6        1.0  0.62450  0.31488  0.28093  1.0000
  H   H7        1.0  0.77996  0.81489  0.78109  1.0000
  H   H8        1.0  0.37550  0.68512  0.71907  1.0000
  H   H9        1.0  0.60672  0.07956  0.14472  1.0000
  H   H10       1.0  0.83262  0.41944  0.35556  1.0000
  H   H11       1.0  0.39331  0.92043  0.85528  1.0000
  H   H12       1.0  0.16738  0.58057  0.64444  1.0000
  H   H13       1.0  0.94600  0.94509  0.22522  1.0000
  H   H14       1.0  0.11690  0.55427  0.27507  1.0000
  H   H15       1.0  0.05401  0.05490  0.77479  1.0000
  H   H16       1.0  0.88309  0.44573  0.72493  1.0000
  H   H17       1.0  0.88302  0.91829  0.37498  1.0000
  H   H18       1.0  0.17555  0.58213  0.12541  1.0000
  H   H19       1.0  0.11698  0.08170  0.62503  1.0000
  H   H20       1.0  0.82444  0.41787  0.87459  1.0000
  Pd  Pd1       1.0  0.50000  0.00000  0.50000  1.0000
  Pd  Pd2       1.0  1.00000  0.50000  1.00000  1.0000
  C   C1        1.0  0.35032  0.10673  0.33483  1.0000
  C   C2        1.0  0.79131  0.39387  0.16511  1.0000
  C   C3        1.0  0.64969  0.89327  0.66517  1.0000
  C   C4        1.0  0.20869  0.60614  0.83488  1.0000
  C   C5        1.0  0.37179  0.12593  0.25113  1.0000
  C   C6        1.0  0.74914  0.37412  0.24886  1.0000
  C   C7        1.0  0.62823  0.87407  0.74887  1.0000
  C   C8        1.0  0.25084  0.62589  0.75114  1.0000
  C   C9        1.0  0.58662  0.06773  0.21013  1.0000
  C   C10       1.0  0.86527  0.43180  0.29007  1.0000
  C   C11       1.0  0.41340  0.93226  0.78988  1.0000
  C   C12       1.0  0.13472  0.56820  0.70993  1.0000
  C   C13       1.0  0.77488  0.99294  0.25441  1.0000
  C   C14       1.0  0.02232  0.50681  0.24578  1.0000
  C   C15       1.0  0.22513  0.00706  0.74560  1.0000
  C   C16       1.0  0.97767  0.49319  0.75422  1.0000
  C   C17       1.0  0.74173  0.97724  0.33795  1.0000
  C   C18       1.0  0.05623  0.52310  0.16219  1.0000
  C   C19       1.0  0.25827  0.02276  0.66205  1.0000
  C   C20       1.0  0.94375  0.47690  0.83781  1.0000
  I   I1        1.0  0.25893  0.81996  0.51423  1.0000
  I   I2        1.0  0.59246  0.68044  0.98517  1.0000
  I   I3        1.0  0.74107  0.18005  0.48577  1.0000
  I   I4        1.0  0.40753  0.31957  0.01482  1.0000
  I   I5        1.0  0.35957  0.75399  0.33095  1.0000
  I   I6        1.0  0.44386  0.74541  0.16867  1.0000
  I   I7        1.0  0.64042  0.24601  0.66905  1.0000
  I   I8        1.0  0.55610  0.25459  0.83133  1.0000
  I   I9        1.0  0.78776  0.59654  0.50851  1.0000
  I   I10       1.0  0.89116  0.90401  0.99126  1.0000
  I   I11       1.0  0.21224  0.40346  0.49149  1.0000
  I   I12       1.0  0.10884  0.09599  0.00874  1.0000
  N   N1        1.0  0.53295  0.03308  0.37727  1.0000
  N   N2        1.0  0.94244  0.46753  0.12270  1.0000
  N   N3        1.0  0.46705  0.96693  0.62273  1.0000
  N   N4        1.0  0.05755  0.53247  0.87730  1.0000
