data_image0
_chemical_formula_structural       Zn2H8C8N4Cl4
_chemical_formula_sum              "Zn2 H8 C8 N4 Cl4"
_cell_length_a       3.55032
_cell_length_b       7.0562
_cell_length_c       12.1771
_cell_angle_alpha    89.9987
_cell_angle_beta     89.9998
_cell_angle_gamma    90

_space_group_name_H-M_alt    "P 1"
_space_group_IT_number       1

loop_
  _space_group_symop_operation_xyz
  'x, y, z'

loop_
  _atom_site_type_symbol
  _atom_site_label
  _atom_site_symmetry_multiplicity
  _atom_site_fract_x
  _atom_site_fract_y
  _atom_site_fract_z
  _atom_site_occupancy
  Zn  Zn1       1.0  1.00000  0.00000  0.50000  1.0000
  Zn  Zn2       1.0  1.00000  0.00001  0.00000  1.0000
  H   H1        1.0  1.00000  0.91581  0.75000  1.0000
  H   H2        1.0  1.00000  0.08420  0.25000  1.0000
  H   H3        1.0  0.00000  0.41746  0.92735  1.0000
  H   H4        1.0  0.00000  0.58255  0.42737  1.0000
  H   H5        1.0  1.00000  0.58255  0.07264  1.0000
  H   H6        1.0  0.00000  0.41743  0.57264  1.0000
  H   H7        1.0  0.00000  0.60478  0.74999  1.0000
  H   H8        1.0  1.00000  0.39523  0.25000  1.0000
  C   C1        1.0  1.00000  0.06977  0.75000  1.0000
  C   C2        1.0  0.99999  0.93019  0.25001  1.0000
  C   C3        1.0  0.00000  0.34885  0.84737  1.0000
  C   C4        1.0  0.00000  0.65116  0.34739  1.0000
  C   C5        1.0  1.00000  0.65116  0.15262  1.0000
  C   C6        1.0  0.00000  0.34884  0.65261  1.0000
  C   C7        1.0  0.00000  0.45104  0.75000  1.0000
  C   C8        1.0  0.00000  0.54895  0.25000  1.0000
  N   N1        1.0  1.00000  0.15814  0.65288  1.0000
  N   N2        1.0  1.00000  0.84185  0.15288  1.0000
  N   N3        1.0  1.00000  0.84185  0.34712  1.0000
  N   N4        1.0  1.00000  0.15815  0.84713  1.0000
  Cl  Cl1       1.0  0.50000  0.78719  0.57307  1.0000
  Cl  Cl2       1.0  0.50000  0.21282  0.07307  1.0000
  Cl  Cl3       1.0  0.50001  0.21282  0.42693  1.0000
  Cl  Cl4       1.0  0.50000  0.78720  0.92693  1.0000
