data_image0
_chemical_formula_structural       Cu2H18C22I2N6O2
_chemical_formula_sum              "Cu2 H18 C22 I2 N6 O2"
_cell_length_a       8.58251
_cell_length_b       8.9313
_cell_length_c       9.15126
_cell_angle_alpha    70.0956
_cell_angle_beta     69.5886
_cell_angle_gamma    85.258

_space_group_name_H-M_alt    "P 1"
_space_group_IT_number       1

loop_
  _space_group_symop_operation_xyz
  'x, y, z'

loop_
  _atom_site_type_symbol
  _atom_site_label
  _atom_site_symmetry_multiplicity
  _atom_site_fract_x
  _atom_site_fract_y
  _atom_site_fract_z
  _atom_site_occupancy
  Cu  Cu1       1.0  0.43446  0.38930  0.13600  1.0000
  Cu  Cu2       1.0  0.56554  0.61069  0.86400  1.0000
  H   H1        1.0  0.22604  0.37616  0.46670  1.0000
  H   H2        1.0  0.77396  0.62385  0.53329  1.0000
  H   H3        1.0  0.24323  0.29630  0.74924  1.0000
  H   H4        1.0  0.75678  0.70371  0.25075  1.0000
  H   H5        1.0  0.51766  0.21397  0.78752  1.0000
  H   H6        1.0  0.48234  0.78604  0.21248  1.0000
  H   H7        1.0  0.72521  0.29897  0.26121  1.0000
  H   H8        1.0  0.27479  0.70102  0.73879  1.0000
  H   H9        1.0  0.03971  0.13481  0.70148  1.0000
  H   H10       1.0  0.96029  0.86519  0.29852  1.0000
  H   H11       1.0  0.05559  0.86766  0.90933  1.0000
  H   H12       1.0  0.94442  0.13234  0.09066  1.0000
  H   H13       1.0  0.84823  0.64995  0.98183  1.0000
  H   H14       1.0  0.15177  0.35005  0.01817  1.0000
  H   H15       1.0  0.61553  0.94144  0.66702  1.0000
  H   H16       1.0  0.38447  0.05856  0.33298  1.0000
  H   H17       1.0  0.03697  0.48841  0.27809  1.0000
  H   H18       1.0  0.96303  0.51159  0.72191  1.0000
  C   C1        1.0  0.34267  0.33885  0.48786  1.0000
  C   C2        1.0  0.65733  0.66116  0.51214  1.0000
  C   C3        1.0  0.35315  0.29322  0.64517  1.0000
  C   C4        1.0  0.64685  0.70679  0.35483  1.0000
  C   C5        1.0  0.50500  0.24753  0.66605  1.0000
  C   C6        1.0  0.49500  0.75247  0.33395  1.0000
  C   C7        1.0  0.64411  0.25131  0.52652  1.0000
  C   C8        1.0  0.35589  0.74869  0.47348  1.0000
  C   C9        1.0  0.62206  0.29652  0.37313  1.0000
  C   C10       1.0  0.37794  0.70348  0.62687  1.0000
  C   C11       1.0  0.81002  0.20982  0.54212  1.0000
  C   C12       1.0  0.18998  0.79018  0.45789  1.0000
  C   C13       1.0  0.82637  0.05895  0.66684  1.0000
  C   C14       1.0  0.17363  0.94105  0.33317  1.0000
  C   C15       1.0  0.95181  0.03685  0.73707  1.0000
  C   C16       1.0  0.04818  0.96315  0.26293  1.0000
  C   C17       1.0  0.95997  0.88986  0.85204  1.0000
  C   C18       1.0  0.04003  0.11013  0.14795  1.0000
  C   C19       1.0  0.84422  0.76805  0.89443  1.0000
  C   C20       1.0  0.15578  0.23195  0.10556  1.0000
  C   C21       1.0  0.71492  0.93049  0.71796  1.0000
  C   C22       1.0  0.28508  0.06951  0.28204  1.0000
  I   I1        1.0  0.27840  0.65717  0.07492  1.0000
  I   I2        1.0  0.72160  0.34283  0.92509  1.0000
  N   N1        1.0  0.47456  0.33894  0.35332  1.0000
  N   N2        1.0  0.52544  0.66106  0.64667  1.0000
  N   N3        1.0  0.72306  0.78754  0.82835  1.0000
  N   N4        1.0  0.27694  0.21246  0.17165  1.0000
  N   N5        1.0  0.94588  0.29728  0.45393  1.0000
  N   N6        1.0  0.05412  0.70273  0.54607  1.0000
  O   O1        1.0  0.92285  0.43909  0.34061  1.0000
  O   O2        1.0  0.07714  0.56090  0.65940  1.0000
