data_image0
_chemical_formula_structural       Cu4H24C36I4N24
_chemical_formula_sum              "Cu4 H24 C36 I4 N24"
_cell_length_a       7.32338
_cell_length_b       11.641
_cell_length_c       13.1987
_cell_angle_alpha    109.194
_cell_angle_beta     89.9998
_cell_angle_gamma    90.0002

_space_group_name_H-M_alt    "P 1"
_space_group_IT_number       1

loop_
  _space_group_symop_operation_xyz
  'x, y, z'

loop_
  _atom_site_type_symbol
  _atom_site_label
  _atom_site_symmetry_multiplicity
  _atom_site_fract_x
  _atom_site_fract_y
  _atom_site_fract_z
  _atom_site_occupancy
  Cu  Cu1       1.0  0.91713  0.52810  0.89061  1.0000
  Cu  Cu2       1.0  0.41713  0.97190  0.60940  1.0000
  Cu  Cu3       1.0  0.08287  0.47190  0.10939  1.0000
  Cu  Cu4       1.0  0.58286  0.02810  0.39061  1.0000
  H   H1        1.0  0.10289  0.25763  0.27379  1.0000
  H   H2        1.0  0.60289  0.24237  0.22621  1.0000
  H   H3        1.0  0.89711  0.74237  0.72621  1.0000
  H   H4        1.0  0.39711  0.75763  0.77379  1.0000
  H   H5        1.0  0.44457  0.54834  0.58745  1.0000
  H   H6        1.0  0.94457  0.95166  0.91255  1.0000
  H   H7        1.0  0.55543  0.45166  0.41255  1.0000
  H   H8        1.0  0.05543  0.04834  0.08745  1.0000
  H   H9        1.0  0.81199  0.09796  0.21825  1.0000
  H   H10       1.0  0.31199  0.40204  0.28175  1.0000
  H   H11       1.0  0.18801  0.90204  0.78175  1.0000
  H   H12       1.0  0.68801  0.59796  0.71825  1.0000
  H   H13       1.0  0.53623  0.21338  0.59438  1.0000
  H   H14       1.0  0.03623  0.28662  0.90563  1.0000
  H   H15       1.0  0.46377  0.78662  0.40563  1.0000
  H   H16       1.0  0.96377  0.71337  0.09438  1.0000
  H   H17       1.0  0.21579  0.52441  0.74825  1.0000
  H   H18       1.0  0.71579  0.97559  0.75175  1.0000
  H   H19       1.0  0.78421  0.47559  0.25176  1.0000
  H   H20       1.0  0.28421  0.02441  0.24824  1.0000
  H   H21       1.0  0.60100  0.34873  0.80903  1.0000
  H   H22       1.0  0.10100  0.15127  0.69097  1.0000
  H   H23       1.0  0.39901  0.65127  0.19097  1.0000
  H   H24       1.0  0.89900  0.84873  0.30903  1.0000
  C   C1        1.0  0.91406  0.37051  0.64908  1.0000
  C   C2        1.0  0.41406  0.12949  0.85092  1.0000
  C   C3        1.0  0.08594  0.62949  0.35092  1.0000
  C   C4        1.0  0.58594  0.87051  0.14908  1.0000
  C   C5        1.0  0.99484  0.23841  0.32163  1.0000
  C   C6        1.0  0.49484  0.26159  0.17837  1.0000
  C   C7        1.0  0.00516  0.76159  0.67837  1.0000
  C   C8        1.0  0.50516  0.73841  0.82163  1.0000
  C   C9        1.0  0.83500  0.24915  0.46769  1.0000
  C   C10       1.0  0.33500  0.25085  0.03231  1.0000
  C   C11       1.0  0.16500  0.75085  0.53231  1.0000
  C   C12       1.0  0.66500  0.74915  0.96769  1.0000
  C   C13       1.0  0.31936  0.49635  0.58020  1.0000
  C   C14       1.0  0.81936  0.00365  0.91980  1.0000
  C   C15       1.0  0.68064  0.50365  0.41980  1.0000
  C   C16       1.0  0.18064  0.99635  0.08019  1.0000
  C   C17       1.0  0.10425  0.37617  0.50084  1.0000
  C   C18       1.0  0.60425  0.12383  0.99916  1.0000
  C   C19       1.0  0.89575  0.62383  0.49916  1.0000
  C   C20       1.0  0.39575  0.87617  0.00084  1.0000
  C   C21       1.0  0.85013  0.15976  0.29667  1.0000
  C   C22       1.0  0.35013  0.34024  0.20333  1.0000
  C   C23       1.0  0.14987  0.84024  0.70333  1.0000
  C   C24       1.0  0.64987  0.65975  0.79667  1.0000
  C   C25       1.0  0.64833  0.27217  0.63369  1.0000
  C   C26       1.0  0.14833  0.22783  0.86631  1.0000
  C   C27       1.0  0.35167  0.72783  0.36631  1.0000
  C   C28       1.0  0.85166  0.77217  0.13369  1.0000
  C   C29       1.0  0.20932  0.48683  0.66134  1.0000
  C   C30       1.0  0.70932  0.01317  0.83866  1.0000
  C   C31       1.0  0.79068  0.51317  0.33866  1.0000
  C   C32       1.0  0.29068  0.98683  0.16133  1.0000
  C   C33       1.0  0.68350  0.33868  0.73836  1.0000
  C   C34       1.0  0.18350  0.16132  0.76164  1.0000
  C   C35       1.0  0.31650  0.66132  0.26164  1.0000
  C   C36       1.0  0.81650  0.83868  0.23836  1.0000
  I   I1        1.0  0.24615  0.55944  0.96413  1.0000
  I   I2        1.0  0.74615  0.94056  0.53587  1.0000
  I   I3        1.0  0.75385  0.44056  0.03587  1.0000
  I   I4        1.0  0.25384  0.05944  0.46413  1.0000
  N   N1        1.0  0.75007  0.16621  0.38829  1.0000
  N   N2        1.0  0.25007  0.33379  0.11171  1.0000
  N   N3        1.0  0.24993  0.83379  0.61171  1.0000
  N   N4        1.0  0.74993  0.66621  0.88829  1.0000
  N   N5        1.0  0.06878  0.40887  0.60984  1.0000
  N   N6        1.0  0.56878  0.09113  0.89016  1.0000
  N   N7        1.0  0.93122  0.59113  0.39016  1.0000
  N   N8        1.0  0.43122  0.90887  0.10984  1.0000
  N   N9        1.0  0.79700  0.29219  0.57589  1.0000
  N   N10       1.0  0.29700  0.20781  0.92411  1.0000
  N   N11       1.0  0.20300  0.70781  0.42411  1.0000
  N   N12       1.0  0.70299  0.79219  0.07589  1.0000
  N   N13       1.0  0.98502  0.29620  0.43168  1.0000
  N   N14       1.0  0.48502  0.20379  0.06832  1.0000
  N   N15       1.0  0.01498  0.70380  0.56832  1.0000
  N   N16       1.0  0.51498  0.79620  0.93168  1.0000
  N   N17       1.0  0.84996  0.40006  0.74802  1.0000
  N   N18       1.0  0.34996  0.09994  0.75198  1.0000
  N   N19       1.0  0.15004  0.59994  0.25198  1.0000
  N   N20       1.0  0.65003  0.90006  0.24802  1.0000
  N   N21       1.0  0.25275  0.42747  0.47977  1.0000
  N   N22       1.0  0.75274  0.07253  0.02023  1.0000
  N   N23       1.0  0.74725  0.57253  0.52023  1.0000
  N   N24       1.0  0.24726  0.92747  0.97976  1.0000
