data_image0
_chemical_formula_structural       Cu4H24C36I4N24
_chemical_formula_sum              "Cu4 H24 C36 I4 N24"
_cell_length_a       4.86989
_cell_length_b       12.9744
_cell_length_c       16.8591
_cell_angle_alpha    104.269
_cell_angle_beta     90.0006
_cell_angle_gamma    89.9997

_space_group_name_H-M_alt    "P 1"
_space_group_IT_number       1

loop_
  _space_group_symop_operation_xyz
  'x, y, z'

loop_
  _atom_site_type_symbol
  _atom_site_label
  _atom_site_symmetry_multiplicity
  _atom_site_fract_x
  _atom_site_fract_y
  _atom_site_fract_z
  _atom_site_occupancy
  Cu  Cu1       1.0  0.45905  0.93942  0.68345  1.0000
  Cu  Cu2       1.0  0.95903  0.06057  0.81655  1.0000
  Cu  Cu3       1.0  0.54098  0.06059  0.31656  1.0000
  Cu  Cu4       1.0  0.04094  0.93942  0.18345  1.0000
  H   H1        1.0  0.44529  0.77821  0.37181  1.0000
  H   H2        1.0  0.94529  0.22178  0.12818  1.0000
  H   H3        1.0  0.55472  0.22180  0.62819  1.0000
  H   H4        1.0  0.05471  0.77821  0.87181  1.0000
  H   H5        1.0  0.25082  0.92432  0.51008  1.0000
  H   H6        1.0  0.75083  0.07566  0.98991  1.0000
  H   H7        1.0  0.74920  0.07568  0.48993  1.0000
  H   H8        1.0  0.24919  0.92432  0.01008  1.0000
  H   H9        1.0  0.91433  0.81537  0.71369  1.0000
  H   H10       1.0  0.41434  0.18463  0.78630  1.0000
  H   H11       1.0  0.08564  0.18463  0.28631  1.0000
  H   H12       1.0  0.58563  0.81537  0.21369  1.0000
  H   H13       1.0  0.36113  0.68404  0.72117  1.0000
  H   H14       1.0  0.86116  0.31596  0.77883  1.0000
  H   H15       1.0  0.63884  0.31597  0.27884  1.0000
  H   H16       1.0  0.13882  0.68404  0.22116  1.0000
  H   H17       1.0  0.38656  0.49388  0.41872  1.0000
  H   H18       1.0  0.88656  0.50612  0.08128  1.0000
  H   H19       1.0  0.61348  0.50613  0.58129  1.0000
  H   H20       1.0  0.11344  0.49387  0.91871  1.0000
  H   H21       1.0  0.14525  0.48827  0.26923  1.0000
  H   H22       1.0  0.64525  0.51172  0.23077  1.0000
  H   H23       1.0  0.85476  0.51173  0.73078  1.0000
  H   H24       1.0  0.35476  0.48827  0.76922  1.0000
  C   C1        1.0  0.50307  0.79399  0.43559  1.0000
  C   C2        1.0  0.00308  0.20600  0.06440  1.0000
  C   C3        1.0  0.49693  0.20601  0.56442  1.0000
  C   C4        1.0  0.99692  0.79399  0.93559  1.0000
  C   C5        1.0  0.41068  0.86486  0.50453  1.0000
  C   C6        1.0  0.91067  0.13513  0.99545  1.0000
  C   C7        1.0  0.58934  0.13515  0.49547  1.0000
  C   C8        1.0  0.08932  0.86486  0.00454  1.0000
  C   C9        1.0  0.87880  0.65759  0.41733  1.0000
  C   C10       1.0  0.37881  0.34241  0.08266  1.0000
  C   C11       1.0  0.12120  0.34241  0.58268  1.0000
  C   C12       1.0  0.62118  0.65759  0.91733  1.0000
  C   C13       1.0  0.73761  0.77717  0.54553  1.0000
  C   C14       1.0  0.23761  0.22282  0.95446  1.0000
  C   C15       1.0  0.26239  0.22283  0.45448  1.0000
  C   C16       1.0  0.76239  0.77717  0.04553  1.0000
  C   C17       1.0  0.11187  0.65367  0.54325  1.0000
  C   C18       1.0  0.61188  0.34633  0.95675  1.0000
  C   C19       1.0  0.88813  0.34634  0.45676  1.0000
  C   C20       1.0  0.38811  0.65367  0.04324  1.0000
  C   C21       1.0  0.01958  0.75606  0.66696  1.0000
  C   C22       1.0  0.51959  0.24394  0.83304  1.0000
  C   C23       1.0  0.98042  0.24395  0.33305  1.0000
  C   C24       1.0  0.48040  0.75606  0.16695  1.0000
  C   C25       1.0  0.23794  0.68941  0.66864  1.0000
  C   C26       1.0  0.73796  0.31058  0.83135  1.0000
  C   C27       1.0  0.76206  0.31060  0.33136  1.0000
  C   C28       1.0  0.26204  0.68941  0.16864  1.0000
  C   C29       1.0  0.21864  0.54001  0.40234  1.0000
  C   C30       1.0  0.71864  0.45999  0.09765  1.0000
  C   C31       1.0  0.78139  0.46000  0.59767  1.0000
  C   C32       1.0  0.28136  0.54000  0.90234  1.0000
  C   C33       1.0  0.09640  0.53982  0.32880  1.0000
  C   C34       1.0  0.59639  0.46018  0.17120  1.0000
  C   C35       1.0  0.90363  0.46019  0.67121  1.0000
  C   C36       1.0  0.40362  0.53982  0.82880  1.0000
  I   I1        1.0  0.54979  0.93412  0.83028  1.0000
  I   I2        1.0  0.04981  0.06587  0.66972  1.0000
  I   I3        1.0  0.45020  0.06588  0.16973  1.0000
  I   I4        1.0  0.95020  0.93412  0.33028  1.0000
  N   N1        1.0  0.07533  0.61618  0.46005  1.0000
  N   N2        1.0  0.57535  0.38381  0.03994  1.0000
  N   N3        1.0  0.92469  0.38383  0.53996  1.0000
  N   N4        1.0  0.42466  0.61618  0.96005  1.0000
  N   N5        1.0  0.93599  0.73300  0.58533  1.0000
  N   N6        1.0  0.43600  0.26700  0.91467  1.0000
  N   N7        1.0  0.06401  0.26701  0.41468  1.0000
  N   N8        1.0  0.56399  0.73300  0.08532  1.0000
  N   N9        1.0  0.55712  0.85432  0.57326  1.0000
  N   N10       1.0  0.05713  0.14566  0.92673  1.0000
  N   N11       1.0  0.44289  0.14568  0.42675  1.0000
  N   N12       1.0  0.94287  0.85432  0.07326  1.0000
  N   N13       1.0  0.71257  0.73769  0.46187  1.0000
  N   N14       1.0  0.21257  0.26231  0.03812  1.0000
  N   N15       1.0  0.28744  0.26232  0.53814  1.0000
  N   N16       1.0  0.78743  0.73769  0.96187  1.0000
  N   N17       1.0  0.88470  0.61381  0.33835  1.0000
  N   N18       1.0  0.38471  0.38618  0.16164  1.0000
  N   N19       1.0  0.11529  0.38619  0.66166  1.0000
  N   N20       1.0  0.61530  0.61382  0.83835  1.0000
  N   N21       1.0  0.29517  0.62607  0.59120  1.0000
  N   N22       1.0  0.79518  0.37392  0.90880  1.0000
  N   N23       1.0  0.70484  0.37394  0.40881  1.0000
  N   N24       1.0  0.20481  0.62607  0.09119  1.0000
