data_image0
_chemical_formula_structural       Cu4H24C36Br4N24
_chemical_formula_sum              "Cu4 H24 C36 Br4 N24"
_cell_length_a       7.4583
_cell_length_b       11.169
_cell_length_c       12.7877
_cell_angle_alpha    106.493
_cell_angle_beta     90.0002
_cell_angle_gamma    89.9999

_space_group_name_H-M_alt    "P 1"
_space_group_IT_number       1

loop_
  _space_group_symop_operation_xyz
  'x, y, z'

loop_
  _atom_site_type_symbol
  _atom_site_label
  _atom_site_symmetry_multiplicity
  _atom_site_fract_x
  _atom_site_fract_y
  _atom_site_fract_z
  _atom_site_occupancy
  Cu  Cu1       1.0  0.91920  0.03185  0.39611  1.0000
  Cu  Cu2       1.0  0.41919  0.46815  0.10389  1.0000
  Cu  Cu3       1.0  0.08080  0.96815  0.60389  1.0000
  Cu  Cu4       1.0  0.58081  0.53185  0.89611  1.0000
  H   H1        1.0  0.61104  0.84679  0.31892  1.0000
  H   H2        1.0  0.11104  0.65321  0.18108  1.0000
  H   H3        1.0  0.38896  0.15322  0.68108  1.0000
  H   H4        1.0  0.88896  0.34679  0.81892  1.0000
  H   H5        1.0  0.54975  0.70889  0.10228  1.0000
  H   H6        1.0  0.04975  0.79111  0.39772  1.0000
  H   H7        1.0  0.45025  0.29111  0.89773  1.0000
  H   H8        1.0  0.95024  0.20889  0.60227  1.0000
  H   H9        1.0  0.21765  0.02456  0.25415  1.0000
  H   H10       1.0  0.71764  0.47544  0.24586  1.0000
  H   H11       1.0  0.78235  0.97544  0.74586  1.0000
  H   H12       1.0  0.28236  0.52456  0.75414  1.0000
  H   H13       1.0  0.44440  0.05261  0.08876  1.0000
  H   H14       1.0  0.94440  0.44739  0.41124  1.0000
  H   H15       1.0  0.55560  0.94739  0.91124  1.0000
  H   H16       1.0  0.05560  0.55261  0.58876  1.0000
  H   H17       1.0  0.11273  0.75750  0.77426  1.0000
  H   H18       1.0  0.61272  0.74250  0.72574  1.0000
  H   H19       1.0  0.88728  0.24250  0.22574  1.0000
  H   H20       1.0  0.38728  0.25750  0.27426  1.0000
  H   H21       1.0  0.82290  0.59749  0.72013  1.0000
  H   H22       1.0  0.32289  0.90251  0.77987  1.0000
  H   H23       1.0  0.17711  0.40251  0.27987  1.0000
  H   H24       1.0  0.67711  0.09749  0.22013  1.0000
  C   C1        1.0  0.92141  0.86887  0.15508  1.0000
  C   C2        1.0  0.42140  0.63112  0.34492  1.0000
  C   C3        1.0  0.07859  0.13112  0.84492  1.0000
  C   C4        1.0  0.57860  0.36887  0.65508  1.0000
  C   C5        1.0  0.69282  0.83623  0.24686  1.0000
  C   C6        1.0  0.19281  0.66377  0.25314  1.0000
  C   C7        1.0  0.30718  0.16377  0.75314  1.0000
  C   C8        1.0  0.80718  0.33623  0.74686  1.0000
  C   C9        1.0  0.65968  0.76854  0.14143  1.0000
  C   C10       1.0  0.15967  0.73146  0.35857  1.0000
  C   C11       1.0  0.34032  0.23146  0.85857  1.0000
  C   C12       1.0  0.84032  0.26854  0.64143  1.0000
  C   C13       1.0  0.11142  0.87622  0.00374  1.0000
  C   C14       1.0  0.61142  0.62378  0.49626  1.0000
  C   C15       1.0  0.88858  0.12379  0.99626  1.0000
  C   C16       1.0  0.38859  0.37622  0.50374  1.0000
  C   C17       1.0  0.21284  0.98740  0.16591  1.0000
  C   C18       1.0  0.71283  0.51260  0.33409  1.0000
  C   C19       1.0  0.78716  0.01260  0.83409  1.0000
  C   C20       1.0  0.28717  0.48739  0.66591  1.0000
  C   C21       1.0  0.32161  0.99899  0.08263  1.0000
  C   C22       1.0  0.82161  0.50101  0.41737  1.0000
  C   C23       1.0  0.67839  0.00101  0.91737  1.0000
  C   C24       1.0  0.17839  0.49899  0.58263  1.0000
  C   C25       1.0  0.84579  0.74667  0.97228  1.0000
  C   C26       1.0  0.34579  0.75333  0.52772  1.0000
  C   C27       1.0  0.15421  0.25333  0.02772  1.0000
  C   C28       1.0  0.65421  0.24667  0.47228  1.0000
  C   C29       1.0  0.00483  0.73777  0.82325  1.0000
  C   C30       1.0  0.50484  0.76223  0.67675  1.0000
  C   C31       1.0  0.99517  0.26223  0.17675  1.0000
  C   C32       1.0  0.49517  0.23777  0.32325  1.0000
  C   C33       1.0  0.86120  0.65857  0.79910  1.0000
  C   C34       1.0  0.36120  0.84143  0.70090  1.0000
  C   C35       1.0  0.13880  0.34143  0.20090  1.0000
  C   C36       1.0  0.63880  0.15857  0.29910  1.0000
  Br  Br1       1.0  0.22132  0.07105  0.46470  1.0000
  Br  Br2       1.0  0.72131  0.42895  0.03530  1.0000
  Br  Br3       1.0  0.77869  0.92896  0.53530  1.0000
  Br  Br4       1.0  0.27869  0.57104  0.96470  1.0000
  N   N1        1.0  0.07512  0.90802  0.11458  1.0000
  N   N2        1.0  0.57512  0.59198  0.38542  1.0000
  N   N3        1.0  0.92488  0.09198  0.88542  1.0000
  N   N4        1.0  0.42488  0.40801  0.61457  1.0000
  N   N5        1.0  0.85656  0.89897  0.25536  1.0000
  N   N6        1.0  0.35656  0.60103  0.24464  1.0000
  N   N7        1.0  0.14344  0.10103  0.74464  1.0000
  N   N8        1.0  0.64344  0.39897  0.75536  1.0000
  N   N9        1.0  0.80743  0.78888  0.08207  1.0000
  N   N10       1.0  0.30743  0.71112  0.41793  1.0000
  N   N11       1.0  0.19257  0.21112  0.91793  1.0000
  N   N12       1.0  0.69257  0.28888  0.58207  1.0000
  N   N13       1.0  0.25730  0.92988  0.98120  1.0000
  N   N14       1.0  0.75730  0.57012  0.51880  1.0000
  N   N15       1.0  0.74270  0.07012  0.01880  1.0000
  N   N16       1.0  0.24271  0.42988  0.48120  1.0000
  N   N17       1.0  0.99514  0.79464  0.93467  1.0000
  N   N18       1.0  0.49513  0.70536  0.56533  1.0000
  N   N19       1.0  0.00487  0.20536  0.06533  1.0000
  N   N20       1.0  0.50487  0.29464  0.43467  1.0000
  N   N21       1.0  0.76142  0.66413  0.89261  1.0000
  N   N22       1.0  0.26142  0.83588  0.60739  1.0000
  N   N23       1.0  0.23858  0.33588  0.10739  1.0000
  N   N24       1.0  0.73858  0.16413  0.39261  1.0000
