data_image0
_chemical_formula_structural       Cd2H32C22O18
_chemical_formula_sum              "Cd2 H32 C22 O18"
_cell_length_a       7.43014
_cell_length_b       8.19318
_cell_length_c       11.7214
_cell_angle_alpha    88.1892
_cell_angle_beta     85.3684
_cell_angle_gamma    88.551

_space_group_name_H-M_alt    "P 1"
_space_group_IT_number       1

loop_
  _space_group_symop_operation_xyz
  'x, y, z'

loop_
  _atom_site_type_symbol
  _atom_site_label
  _atom_site_symmetry_multiplicity
  _atom_site_fract_x
  _atom_site_fract_y
  _atom_site_fract_z
  _atom_site_occupancy
  Cd  Cd1       1.0  0.75105  0.23453  0.00562  1.0000
  Cd  Cd2       1.0  0.24895  0.76546  0.99438  1.0000
  H   H1        1.0  0.22796  0.35348  0.70677  1.0000
  H   H2        1.0  0.77203  0.64652  0.29323  1.0000
  H   H3        1.0  0.03230  0.31856  0.63126  1.0000
  H   H4        1.0  0.96769  0.68144  0.36874  1.0000
  H   H5        1.0  0.24536  0.40895  0.49928  1.0000
  H   H6        1.0  0.75464  0.59105  0.50072  1.0000
  H   H7        1.0  0.41054  0.86439  0.33359  1.0000
  H   H8        1.0  0.58947  0.13561  0.66641  1.0000
  H   H9        1.0  0.09257  0.86717  0.65794  1.0000
  H   H10       1.0  0.90744  0.13283  0.34206  1.0000
  H   H11       1.0  0.13095  0.12645  0.48138  1.0000
  H   H12       1.0  0.86905  0.87355  0.51862  1.0000
  H   H13       1.0  0.36466  0.11319  0.43445  1.0000
  H   H14       1.0  0.63534  0.88682  0.56555  1.0000
  H   H15       1.0  0.29507  0.10756  0.58323  1.0000
  H   H16       1.0  0.70493  0.89244  0.41677  1.0000
  H   H17       1.0  0.29661  0.34541  0.29821  1.0000
  H   H18       1.0  0.70338  0.65459  0.70179  1.0000
  H   H19       1.0  0.49053  0.32743  0.37983  1.0000
  H   H20       1.0  0.50947  0.67257  0.62016  1.0000
  H   H21       1.0  0.41443  0.16545  0.92723  1.0000
  H   H22       1.0  0.58557  0.83454  0.07278  1.0000
  H   H23       1.0  0.47041  0.34456  0.87869  1.0000
  H   H24       1.0  0.52959  0.65543  0.12131  1.0000
  H   H25       1.0  0.83621  0.88448  0.95918  1.0000
  H   H26       1.0  0.16379  0.11552  0.04082  1.0000
  H   H27       1.0  0.85630  0.91192  0.08797  1.0000
  H   H28       1.0  0.14370  0.08808  0.91204  1.0000
  H   H29       1.0  0.05598  0.37491  0.11457  1.0000
  H   H30       1.0  0.94402  0.62509  0.88543  1.0000
  H   H31       1.0  0.97381  0.23494  0.19232  1.0000
  H   H32       1.0  0.02619  0.76506  0.80769  1.0000
  C   C1        1.0  0.97955  0.33189  0.81134  1.0000
  C   C2        1.0  0.02045  0.66811  0.18866  1.0000
  C   C3        1.0  0.08408  0.38641  0.70081  1.0000
  C   C4        1.0  0.91592  0.61359  0.29919  1.0000
  C   C5        1.0  0.15606  0.62956  0.58757  1.0000
  C   C6        1.0  0.84394  0.37044  0.41243  1.0000
  C   C7        1.0  0.24553  0.54147  0.49824  1.0000
  C   C8        1.0  0.75447  0.45853  0.50176  1.0000
  C   C9        1.0  0.33687  0.63030  0.40792  1.0000
  C   C10       1.0  0.66313  0.36970  0.59208  1.0000
  C   C11       1.0  0.33906  0.80114  0.40625  1.0000
  C   C12       1.0  0.66094  0.19887  0.59375  1.0000
  C   C13       1.0  0.25253  0.88626  0.49679  1.0000
  C   C14       1.0  0.74747  0.11374  0.50321  1.0000
  C   C15       1.0  0.15947  0.79993  0.58703  1.0000
  C   C16       1.0  0.84053  0.20008  0.41298  1.0000
  C   C17       1.0  0.26140  0.06863  0.49892  1.0000
  C   C18       1.0  0.73860  0.93137  0.50108  1.0000
  C   C19       1.0  0.43407  0.38954  0.30567  1.0000
  C   C20       1.0  0.56593  0.61046  0.69432  1.0000
  C   C21       1.0  0.55245  0.34619  0.19870  1.0000
  C   C22       1.0  0.44755  0.65382  0.80130  1.0000
  O   O1        1.0  0.89424  0.43466  0.87652  1.0000
  O   O2        1.0  0.10576  0.56533  0.12348  1.0000
  O   O3        1.0  0.98010  0.17912  0.83384  1.0000
  O   O4        1.0  0.01990  0.82088  0.16616  1.0000
  O   O5        1.0  0.06207  0.55839  0.68149  1.0000
  O   O6        1.0  0.93793  0.44161  0.31851  1.0000
  O   O7        1.0  0.43187  0.56173  0.31641  1.0000
  O   O8        1.0  0.56813  0.43827  0.68359  1.0000
  O   O9        1.0  0.61274  0.45783  0.12872  1.0000
  O   O10       1.0  0.38726  0.54218  0.87127  1.0000
  O   O11       1.0  0.58583  0.19497  0.18447  1.0000
  O   O12       1.0  0.41417  0.80503  0.81552  1.0000
  O   O13       1.0  0.51755  0.23105  0.89399  1.0000
  O   O14       1.0  0.48245  0.76895  0.10601  1.0000
  O   O15       1.0  0.77739  0.94401  0.02565  1.0000
  O   O16       1.0  0.22261  0.05599  0.97435  1.0000
  O   O17       1.0  0.01908  0.25656  0.11297  1.0000
  O   O18       1.0  0.98092  0.74343  0.88703  1.0000
