data_image0
_chemical_formula_structural       Cu2H12C18I4N12
_chemical_formula_sum              "Cu2 H12 C18 I4 N12"
_cell_length_a       4.41595
_cell_length_b       11.9453
_cell_length_c       12.2394
_cell_angle_alpha    74.219
_cell_angle_beta     86.0343
_cell_angle_gamma    81.62

_space_group_name_H-M_alt    "P 1"
_space_group_IT_number       1

loop_
  _space_group_symop_operation_xyz
  'x, y, z'

loop_
  _atom_site_type_symbol
  _atom_site_label
  _atom_site_symmetry_multiplicity
  _atom_site_fract_x
  _atom_site_fract_y
  _atom_site_fract_z
  _atom_site_occupancy
  Cu  Cu1       1.0  0.87753  0.91495  0.56049  1.0000
  Cu  Cu2       1.0  0.12249  0.08505  0.43951  1.0000
  H   H1        1.0  0.77838  0.55369  0.26759  1.0000
  H   H2        1.0  0.22157  0.44630  0.73240  1.0000
  H   H3        1.0  0.52394  0.55614  0.86908  1.0000
  H   H4        1.0  0.47605  0.44386  0.13091  1.0000
  H   H5        1.0  0.48009  0.04944  0.86842  1.0000
  H   H6        1.0  0.51993  0.95056  0.13159  1.0000
  H   H7        1.0  0.19189  0.98660  0.70176  1.0000
  H   H8        1.0  0.80813  0.01340  0.29824  1.0000
  H   H9        1.0  0.55808  0.68157  0.64198  1.0000
  H   H10       1.0  0.44193  0.31844  0.35801  1.0000
  H   H11       1.0  0.11045  0.74256  0.20603  1.0000
  H   H12       1.0  0.88952  0.25743  0.79398  1.0000
  C   C1        1.0  0.82874  0.60777  0.18335  1.0000
  C   C2        1.0  0.17122  0.39222  0.81665  1.0000
  C   C3        1.0  0.82657  0.66788  0.00202  1.0000
  C   C4        1.0  0.17342  0.33211  0.99798  1.0000
  C   C5        1.0  0.62806  0.63472  0.82686  1.0000
  C   C6        1.0  0.37194  0.36529  0.17314  1.0000
  C   C7        1.0  0.34063  0.97981  0.87634  1.0000
  C   C8        1.0  0.65938  0.02019  0.12366  1.0000
  C   C9        1.0  0.88776  0.78602  0.80891  1.0000
  C   C10       1.0  0.11225  0.21398  0.19108  1.0000
  C   C11       1.0  0.11454  0.83234  0.96328  1.0000
  C   C12       1.0  0.88546  0.16766  0.03672  1.0000
  C   C13       1.0  0.20033  0.95102  0.79296  1.0000
  C   C14       1.0  0.79967  0.04898  0.20705  1.0000
  C   C15       1.0  0.64739  0.69784  0.71568  1.0000
  C   C16       1.0  0.35262  0.30217  0.28432  1.0000
  C   C17       1.0  0.99358  0.70121  0.15587  1.0000
  C   C18       1.0  0.00640  0.29879  0.84413  1.0000
  I   I1        1.0  0.35610  0.87011  0.43912  1.0000
  I   I2        1.0  0.64390  0.12989  0.56087  1.0000
  I   I3        1.0  0.11163  0.61043  0.47938  1.0000
  I   I4        1.0  0.88840  0.38958  0.52061  1.0000
  N   N1        1.0  0.05263  0.85500  0.84875  1.0000
  N   N2        1.0  0.94738  0.14500  0.15125  1.0000
  N   N3        1.0  0.78247  0.69174  0.88665  1.0000
  N   N4        1.0  0.21753  0.30827  0.11334  1.0000
  N   N5        1.0  0.99235  0.74012  0.03798  1.0000
  N   N6        1.0  0.00765  0.25988  0.96202  1.0000
  N   N7        1.0  0.28761  0.90460  0.98260  1.0000
  N   N8        1.0  0.71239  0.09540  0.01741  1.0000
  N   N9        1.0  0.72484  0.58725  0.08674  1.0000
  N   N10       1.0  0.27514  0.41275  0.91326  1.0000
  N   N11       1.0  0.80868  0.79285  0.70439  1.0000
  N   N12       1.0  0.19133  0.20716  0.29561  1.0000
