data_image0
_chemical_formula_structural       V4Cu2H16C20N4O12
_chemical_formula_sum              "V4 Cu2 H16 C20 N4 O12"
_cell_length_a       7.9261
_cell_length_b       8.17961
_cell_length_c       10.2102
_cell_angle_alpha    72.5201
_cell_angle_beta     84.9368
_cell_angle_gamma    76.5208

_space_group_name_H-M_alt    "P 1"
_space_group_IT_number       1

loop_
  _space_group_symop_operation_xyz
  'x, y, z'

loop_
  _atom_site_type_symbol
  _atom_site_label
  _atom_site_symmetry_multiplicity
  _atom_site_fract_x
  _atom_site_fract_y
  _atom_site_fract_z
  _atom_site_occupancy
  V   V1        1.0  0.87391  0.38424  0.34805  1.0000
  V   V2        1.0  0.12610  0.61576  0.65195  1.0000
  V   V3        1.0  0.26290  0.26801  0.53134  1.0000
  V   V4        1.0  0.73710  0.73199  0.46867  1.0000
  Cu  Cu1       1.0  0.57823  0.16478  0.27859  1.0000
  Cu  Cu2       1.0  0.42177  0.83522  0.72141  1.0000
  H   H1        1.0  0.81072  0.37243  0.06238  1.0000
  H   H2        1.0  0.18928  0.62758  0.93761  1.0000
  H   H3        1.0  0.81759  0.47635  0.80704  1.0000
  H   H4        1.0  0.18240  0.52367  0.19295  1.0000
  H   H5        1.0  0.59032  0.41804  0.67665  1.0000
  H   H6        1.0  0.40967  0.58195  0.32335  1.0000
  H   H7        1.0  0.36898  0.25772  0.81085  1.0000
  H   H8        1.0  0.63102  0.74227  0.18915  1.0000
  H   H9        1.0  0.15640  0.18237  0.94124  1.0000
  H   H10       1.0  0.84359  0.81764  0.05876  1.0000
  H   H11       1.0  0.95978  0.02055  0.11450  1.0000
  H   H12       1.0  0.04022  0.97946  0.88551  1.0000
  H   H13       1.0  0.04701  0.89610  0.35867  1.0000
  H   H14       1.0  0.95299  0.10389  0.64133  1.0000
  H   H15       1.0  0.32423  0.94498  0.42683  1.0000
  H   H16       1.0  0.67577  0.05500  0.57317  1.0000
  C   C1        1.0  0.71594  0.34888  0.00258  1.0000
  C   C2        1.0  0.28405  0.65113  0.99742  1.0000
  C   C3        1.0  0.71688  0.40820  0.85941  1.0000
  C   C4        1.0  0.28311  0.59181  0.14058  1.0000
  C   C5        1.0  0.59192  0.37515  0.78861  1.0000
  C   C6        1.0  0.40807  0.62485  0.21139  1.0000
  C   C7        1.0  0.46734  0.28709  0.86285  1.0000
  C   C8        1.0  0.53266  0.71291  0.13715  1.0000
  C   C9        1.0  0.47073  0.23485  0.00594  1.0000
  C   C10       1.0  0.52927  0.76515  0.99406  1.0000
  C   C11       1.0  0.34307  0.14616  0.09448  1.0000
  C   C12       1.0  0.65694  0.85384  0.90553  1.0000
  C   C13       1.0  0.19064  0.12452  0.04894  1.0000
  C   C14       1.0  0.80936  0.87548  0.95106  1.0000
  C   C15       1.0  0.08220  0.03560  0.14477  1.0000
  C   C16       1.0  0.91780  0.96440  0.85524  1.0000
  C   C17       1.0  0.12917  0.96665  0.28204  1.0000
  C   C18       1.0  0.87083  0.03335  0.71797  1.0000
  C   C19       1.0  0.28088  0.99544  0.32112  1.0000
  C   C20       1.0  0.71912  0.00456  0.67889  1.0000
  N   N1        1.0  0.59618  0.26332  0.07374  1.0000
  N   N2        1.0  0.40382  0.73669  0.92626  1.0000
  N   N3        1.0  0.38186  0.08624  0.22946  1.0000
  N   N4        1.0  0.61814  0.91376  0.77054  1.0000
  O   O1        1.0  0.76875  0.23269  0.33521  1.0000
  O   O2        1.0  0.23125  0.76731  0.66478  1.0000
  O   O3        1.0  0.91668  0.50306  0.19414  1.0000
  O   O4        1.0  0.08333  0.49694  0.80586  1.0000
  O   O5        1.0  0.73955  0.52450  0.44098  1.0000
  O   O6        1.0  0.26046  0.47550  0.55901  1.0000
  O   O7        1.0  0.44201  0.21324  0.44022  1.0000
  O   O8        1.0  0.55799  0.78675  0.55979  1.0000
  O   O9        1.0  0.07204  0.28469  0.44193  1.0000
  O   O10       1.0  0.92797  0.71530  0.55806  1.0000
  O   O11       1.0  0.73431  0.88570  0.31919  1.0000
  O   O12       1.0  0.26569  0.11430  0.68081  1.0000
