data_image0
_chemical_formula_structural       Cu2H28C30N12O4
_chemical_formula_sum              "Cu2 H28 C30 N12 O4"
_cell_length_a       8.55781
_cell_length_b       8.5159
_cell_length_c       11.7015
_cell_angle_alpha    77.2074
_cell_angle_beta     75.3445
_cell_angle_gamma    74.7234

_space_group_name_H-M_alt    "P 1"
_space_group_IT_number       1

loop_
  _space_group_symop_operation_xyz
  'x, y, z'

loop_
  _atom_site_type_symbol
  _atom_site_label
  _atom_site_symmetry_multiplicity
  _atom_site_fract_x
  _atom_site_fract_y
  _atom_site_fract_z
  _atom_site_occupancy
  Cu  Cu1       1.0  0.00000  0.00001  0.99999  1.0000
  Cu  Cu2       1.0  1.00000  1.00000  0.50000  1.0000
  H   H1        1.0  0.66180  0.94677  0.07071  1.0000
  H   H2        1.0  0.33821  0.05323  0.92929  1.0000
  H   H3        1.0  0.37584  0.10772  0.14797  1.0000
  H   H4        1.0  0.62418  0.89228  0.85204  1.0000
  H   H5        1.0  0.59255  0.52322  0.11298  1.0000
  H   H6        1.0  0.40745  0.47679  0.88702  1.0000
  H   H7        1.0  0.86831  0.34588  0.04182  1.0000
  H   H8        1.0  0.13168  0.65414  0.95817  1.0000
  H   H9        1.0  0.20099  0.39242  0.15102  1.0000
  H   H10       1.0  0.79901  0.60759  0.84900  1.0000
  H   H11       1.0  0.28741  0.55875  0.15532  1.0000
  H   H12       1.0  0.71259  0.44126  0.84468  1.0000
  H   H13       1.0  0.10638  0.45820  0.34616  1.0000
  H   H14       1.0  0.89361  0.54181  0.65385  1.0000
  H   H15       1.0  0.24551  0.26601  0.35864  1.0000
  H   H16       1.0  0.75448  0.73399  0.64136  1.0000
  H   H17       1.0  0.24770  0.48517  0.47893  1.0000
  H   H18       1.0  0.75230  0.51477  0.52111  1.0000
  H   H19       1.0  0.34723  0.59207  0.34397  1.0000
  H   H20       1.0  0.65273  0.40795  0.65608  1.0000
  H   H21       1.0  0.37809  0.17935  0.54727  1.0000
  H   H22       1.0  0.62191  0.82062  0.45271  1.0000
  H   H23       1.0  0.64721  0.00468  0.59042  1.0000
  H   H24       1.0  0.35279  0.99529  0.40954  1.0000
  H   H25       1.0  0.90994  0.32504  0.34726  1.0000
  H   H26       1.0  0.09006  0.67496  0.65275  1.0000
  H   H27       1.0  0.65367  0.51747  0.30137  1.0000
  H   H28       1.0  0.34633  0.48254  0.69864  1.0000
  C   C1        1.0  0.92261  0.96673  0.76180  1.0000
  C   C2        1.0  0.07739  0.03326  0.23820  1.0000
  C   C3        1.0  0.00467  0.10559  0.74678  1.0000
  C   C4        1.0  0.99531  0.89442  0.25321  1.0000
  C   C5        1.0  0.63981  0.07447  0.08321  1.0000
  C   C6        1.0  0.36020  0.92553  0.91679  1.0000
  C   C7        1.0  0.48284  0.16357  0.12662  1.0000
  C   C8        1.0  0.51717  0.83644  0.87339  1.0000
  C   C9        1.0  0.46083  0.32827  0.14000  1.0000
  C   C10       1.0  0.53917  0.67173  0.86001  1.0000
  C   C11       1.0  0.60187  0.39501  0.10729  1.0000
  C   C12       1.0  0.39812  0.60501  0.89272  1.0000
  C   C13       1.0  0.75589  0.29819  0.06612  1.0000
  C   C14       1.0  0.24411  0.70182  0.93387  1.0000
  C   C15       1.0  0.29212  0.42635  0.18725  1.0000
  C   C16       1.0  0.70788  0.57365  0.81276  1.0000
  C   C17       1.0  0.23809  0.39803  0.32457  1.0000
  C   C18       1.0  0.76191  0.60198  0.67544  1.0000
  C   C19       1.0  0.32980  0.46906  0.39149  1.0000
  C   C20       1.0  0.67019  0.53093  0.60853  1.0000
  C   C21       1.0  0.49161  0.36146  0.41608  1.0000
  C   C22       1.0  0.50840  0.63853  0.58392  1.0000
  C   C23       1.0  0.49364  0.21484  0.49952  1.0000
  C   C24       1.0  0.50637  0.78514  0.50046  1.0000
  C   C25       1.0  0.64247  0.11680  0.52404  1.0000
  C   C26       1.0  0.35753  0.88317  0.47593  1.0000
  C   C27       1.0  0.78969  0.29640  0.38920  1.0000
  C   C28       1.0  0.21032  0.70358  0.61080  1.0000
  C   C29       1.0  0.64469  0.40203  0.36254  1.0000
  C   C30       1.0  0.35532  0.59798  0.63747  1.0000
  N   N1        1.0  0.03611  0.14895  0.84140  1.0000
  N   N2        1.0  0.96390  0.85104  0.15859  1.0000
  N   N3        1.0  0.11047  0.27628  0.79848  1.0000
  N   N4        1.0  0.88954  0.72373  0.20150  1.0000
  N   N5        1.0  0.12296  0.30898  0.68021  1.0000
  N   N6        1.0  0.87704  0.69102  0.31977  1.0000
  N   N7        1.0  0.05773  0.20345  0.64548  1.0000
  N   N8        1.0  0.94226  0.79654  0.35451  1.0000
  N   N9        1.0  0.77436  0.14058  0.05408  1.0000
  N   N10       1.0  0.22564  0.85944  0.94592  1.0000
  N   N11       1.0  0.78952  0.15484  0.46824  1.0000
  N   N12       1.0  0.21048  0.84515  0.53175  1.0000
  O   O1        1.0  0.88578  0.88845  0.86575  1.0000
  O   O2        1.0  0.11420  0.11158  0.13425  1.0000
  O   O3        1.0  0.89073  0.93422  0.66864  1.0000
  O   O4        1.0  0.10927  0.06578  0.33135  1.0000
