data_image0
_chemical_formula_structural       Li4H12C12O12
_chemical_formula_sum              "Li4 H12 C12 O12"
_cell_length_a       6.28683
_cell_length_b       7.94931
_cell_length_c       8.54853
_cell_angle_alpha    114.053
_cell_angle_beta     111.547
_cell_angle_gamma    89.9799

_space_group_name_H-M_alt    "P 1"
_space_group_IT_number       1

loop_
  _space_group_symop_operation_xyz
  'x, y, z'

loop_
  _atom_site_type_symbol
  _atom_site_label
  _atom_site_symmetry_multiplicity
  _atom_site_fract_x
  _atom_site_fract_y
  _atom_site_fract_z
  _atom_site_occupancy
  Li  Li1       1.0  0.60155  0.55261  0.20272  1.0000
  Li  Li2       1.0  0.39846  0.44739  0.79728  1.0000
  Li  Li3       1.0  0.78334  0.43661  0.56676  1.0000
  Li  Li4       1.0  0.21666  0.56339  0.43324  1.0000
  H   H1        1.0  0.66447  0.01918  0.32840  1.0000
  H   H2        1.0  0.33553  0.98082  0.67160  1.0000
  H   H3        1.0  0.98476  0.66866  0.97017  1.0000
  H   H4        1.0  0.01523  0.33134  0.02983  1.0000
  H   H5        1.0  0.35395  0.79119  0.34928  1.0000
  H   H6        1.0  0.00463  0.20902  0.65087  1.0000
  H   H7        1.0  0.64606  0.20881  0.65071  1.0000
  H   H8        1.0  0.99538  0.79098  0.34913  1.0000
  H   H9        1.0  0.56995  0.74470  0.48935  1.0000
  H   H10       1.0  0.08064  0.25530  0.51067  1.0000
  H   H11       1.0  0.43006  0.25530  0.51065  1.0000
  H   H12       1.0  0.91937  0.74470  0.48933  1.0000
  C   C1        1.0  0.58284  0.17753  0.16551  1.0000
  C   C2        1.0  0.41716  0.82247  0.83449  1.0000
  C   C3        1.0  0.59432  0.01259  0.18847  1.0000
  C   C4        1.0  0.40568  0.98741  0.81153  1.0000
  C   C5        1.0  0.48367  0.16383  0.96751  1.0000
  C   C6        1.0  0.51633  0.83617  0.03248  1.0000
  C   C7        1.0  0.99147  0.81121  0.98349  1.0000
  C   C8        1.0  0.00852  0.18879  0.01651  1.0000
  C   C9        1.0  0.91891  0.03772  0.83741  1.0000
  C   C10       1.0  0.08108  0.96228  0.16260  1.0000
  C   C11       1.0  0.91071  0.83923  0.82167  1.0000
  C   C12       1.0  0.08928  0.16077  0.17834  1.0000
  O   O1        1.0  0.64925  0.34286  0.29808  1.0000
  O   O2        1.0  0.35075  0.65714  0.70192  1.0000
  O   O3        1.0  0.47875  0.31880  0.95811  1.0000
  O   O4        1.0  0.52125  0.68120  0.04189  1.0000
  O   O5        1.0  0.82775  0.70568  0.65575  1.0000
  O   O6        1.0  0.17225  0.29432  0.34425  1.0000
  O   O7        1.0  0.84243  0.05318  0.68401  1.0000
  O   O8        1.0  0.15757  0.94682  0.31599  1.0000
  O   O9        1.0  0.42879  0.68822  0.37098  1.0000
  O   O10       1.0  0.05767  0.31192  0.62904  1.0000
  O   O11       1.0  0.57121  0.31178  0.62902  1.0000
  O   O12       1.0  0.94234  0.68808  0.37096  1.0000
