data_image0
_chemical_formula_structural       Cd2H28C32N12O10
_chemical_formula_sum              "Cd2 H28 C32 N12 O10"
_cell_length_a       8.02247
_cell_length_b       10.5047
_cell_length_c       10.5047
_cell_angle_alpha    99.2523
_cell_angle_beta     93.5174
_cell_angle_gamma    93.5173

_space_group_name_H-M_alt    "P 1"
_space_group_IT_number       1

loop_
  _space_group_symop_operation_xyz
  'x, y, z'

loop_
  _atom_site_type_symbol
  _atom_site_label
  _atom_site_symmetry_multiplicity
  _atom_site_fract_x
  _atom_site_fract_y
  _atom_site_fract_z
  _atom_site_occupancy
  Cd  Cd1       1.0  0.25000  0.12168  0.87831  1.0000
  Cd  Cd2       1.0  0.75000  0.87832  0.12169  1.0000
  H   H1        1.0  0.32135  0.90773  0.01457  1.0000
  H   H2        1.0  0.17865  0.98543  0.09227  1.0000
  H   H3        1.0  0.67865  0.09227  0.98543  1.0000
  H   H4        1.0  0.82135  0.01457  0.90773  1.0000
  H   H5        1.0  0.69869  0.41051  0.83378  1.0000
  H   H6        1.0  0.80131  0.16622  0.58948  1.0000
  H   H7        1.0  0.30131  0.58949  0.16622  1.0000
  H   H8        1.0  0.19869  0.83378  0.41052  1.0000
  H   H9        1.0  0.66051  0.49548  0.98880  1.0000
  H   H10       1.0  0.83949  0.01120  0.50452  1.0000
  H   H11       1.0  0.33950  0.50452  0.01120  1.0000
  H   H12       1.0  0.16051  0.98880  0.49548  1.0000
  H   H13       1.0  0.78473  0.55121  0.21468  1.0000
  H   H14       1.0  0.71527  0.78532  0.44878  1.0000
  H   H15       1.0  0.21527  0.44878  0.78532  1.0000
  H   H16       1.0  0.28473  0.21468  0.55122  1.0000
  H   H17       1.0  0.99344  0.57496  0.40568  1.0000
  H   H18       1.0  0.50657  0.59432  0.42504  1.0000
  H   H19       1.0  0.00657  0.42504  0.59432  1.0000
  H   H20       1.0  0.49343  0.40568  0.57496  1.0000
  H   H21       1.0  0.23218  0.43575  0.40660  1.0000
  H   H22       1.0  0.26783  0.59340  0.56425  1.0000
  H   H23       1.0  0.76783  0.56426  0.59340  1.0000
  H   H24       1.0  0.73217  0.40660  0.43575  1.0000
  H   H25       1.0  0.28341  0.27608  0.21335  1.0000
  H   H26       1.0  0.21660  0.78664  0.72393  1.0000
  H   H27       1.0  0.71660  0.72393  0.78665  1.0000
  H   H28       1.0  0.78340  0.21335  0.27607  1.0000
  C   C1        1.0  0.53353  0.30487  0.93951  1.0000
  C   C2        1.0  0.96647  0.06049  0.69513  1.0000
  C   C3        1.0  0.46647  0.69513  0.06049  1.0000
  C   C4        1.0  0.03353  0.93951  0.30487  1.0000
  C   C5        1.0  0.68427  0.40054  0.93479  1.0000
  C   C6        1.0  0.81573  0.06521  0.59946  1.0000
  C   C7        1.0  0.31573  0.59945  0.06521  1.0000
  C   C8        1.0  0.18427  0.93479  0.40055  1.0000
  C   C9        1.0  0.91979  0.39855  0.10900  1.0000
  C   C10       1.0  0.58022  0.89100  0.60145  1.0000
  C   C11       1.0  0.08022  0.60145  0.89100  1.0000
  C   C12       1.0  0.41978  0.10900  0.39855  1.0000
  C   C13       1.0  0.89049  0.49086  0.21584  1.0000
  C   C14       1.0  0.60952  0.78416  0.50914  1.0000
  C   C15       1.0  0.10951  0.50914  0.78416  1.0000
  C   C16       1.0  0.39048  0.21584  0.49086  1.0000
  C   C17       1.0  0.00746  0.50243  0.32097  1.0000
  C   C18       1.0  0.49255  0.67904  0.49757  1.0000
  C   C19       1.0  0.99254  0.49758  0.67903  1.0000
  C   C20       1.0  0.50745  0.32096  0.50242  1.0000
  C   C21       1.0  0.14553  0.42439  0.32103  1.0000
  C   C22       1.0  0.35448  0.67896  0.57561  1.0000
  C   C23       1.0  0.85447  0.57561  0.67896  1.0000
  C   C24       1.0  0.64552  0.32103  0.42439  1.0000
  C   C25       1.0  0.17555  0.33435  0.21461  1.0000
  C   C26       1.0  0.32446  0.78539  0.66565  1.0000
  C   C27       1.0  0.82445  0.66565  0.78539  1.0000
  C   C28       1.0  0.67555  0.21461  0.33435  1.0000
  C   C29       1.0  0.06055  0.32347  0.10668  1.0000
  C   C30       1.0  0.43945  0.89332  0.67653  1.0000
  C   C31       1.0  0.93944  0.67653  0.89332  1.0000
  C   C32       1.0  0.56055  0.10668  0.32347  1.0000
  N   N1        1.0  0.84025  0.36210  0.98813  1.0000
  N   N2        1.0  0.65974  0.01187  0.63790  1.0000
  N   N3        1.0  0.15975  0.63789  0.01187  1.0000
  N   N4        1.0  0.34025  0.98813  0.36210  1.0000
  N   N5        1.0  0.92379  0.27311  0.91626  1.0000
  N   N6        1.0  0.57621  0.08374  0.72689  1.0000
  N   N7        1.0  0.07621  0.72689  0.08374  1.0000
  N   N8        1.0  0.42379  0.91626  0.27311  1.0000
  N   N9        1.0  0.05574  0.24939  0.98579  1.0000
  N   N10       1.0  0.44427  0.01420  0.75061  1.0000
  N   N11       1.0  0.94426  0.75061  0.01421  1.0000
  N   N12       1.0  0.55573  0.98579  0.24939  1.0000
  O   O1        1.0  0.40164  0.32599  0.87454  1.0000
  O   O2        1.0  0.09836  0.12547  0.67400  1.0000
  O   O3        1.0  0.59836  0.67400  0.12546  1.0000
  O   O4        1.0  0.90164  0.87453  0.32600  1.0000
  O   O5        1.0  0.54436  0.21434  0.00471  1.0000
  O   O6        1.0  0.95563  0.99530  0.78566  1.0000
  O   O7        1.0  0.45564  0.78566  0.99529  1.0000
  O   O8        1.0  0.04436  0.00470  0.21434  1.0000
  O   O9        1.0  0.25000  0.98185  0.01815  1.0000
  O   O10       1.0  0.75000  0.01815  0.98185  1.0000
