data_image0
_chemical_formula_structural       Ag2H16C16N6O6
_chemical_formula_sum              "Ag2 H16 C16 N6 O6"
_cell_length_a       6.84253
_cell_length_b       7.97312
_cell_length_c       9.32659
_cell_angle_alpha    70.8936
_cell_angle_beta     74.1959
_cell_angle_gamma    75.2118

_space_group_name_H-M_alt    "P 1"
_space_group_IT_number       1

loop_
  _space_group_symop_operation_xyz
  'x, y, z'

loop_
  _atom_site_type_symbol
  _atom_site_label
  _atom_site_symmetry_multiplicity
  _atom_site_fract_x
  _atom_site_fract_y
  _atom_site_fract_z
  _atom_site_occupancy
  Ag  Ag1       1.0  0.50073  0.35047  0.69755  1.0000
  Ag  Ag2       1.0  0.49927  0.64953  0.30245  1.0000
  H   H1        1.0  0.40641  0.17881  0.99209  1.0000
  H   H2        1.0  0.59359  0.82120  0.00790  1.0000
  H   H3        1.0  0.31524  0.06602  0.92482  1.0000
  H   H4        1.0  0.68476  0.93398  0.07518  1.0000
  H   H5        1.0  0.65759  0.90215  0.72806  1.0000
  H   H6        1.0  0.34242  0.09785  0.27194  1.0000
  H   H7        1.0  0.81993  0.62068  0.65162  1.0000
  H   H8        1.0  0.18007  0.37932  0.34838  1.0000
  H   H9        1.0  0.98330  0.63050  0.37469  1.0000
  H   H10       1.0  0.01670  0.36951  0.62531  1.0000
  H   H11       1.0  0.98463  0.91951  0.16878  1.0000
  H   H12       1.0  0.01537  0.08049  0.83122  1.0000
  H   H13       1.0  0.98957  0.29049  0.04157  1.0000
  H   H14       1.0  0.01043  0.70951  0.95844  1.0000
  H   H15       1.0  0.80213  0.48441  0.07252  1.0000
  H   H16       1.0  0.19787  0.51559  0.92748  1.0000
  C   C1        1.0  0.72972  0.06983  0.49058  1.0000
  C   C2        1.0  0.27029  0.93018  0.50942  1.0000
  C   C3        1.0  0.73087  0.90615  0.60813  1.0000
  C   C4        1.0  0.26912  0.09385  0.39187  1.0000
  C   C5        1.0  0.82142  0.75006  0.56304  1.0000
  C   C6        1.0  0.17858  0.24994  0.43696  1.0000
  C   C7        1.0  0.91216  0.75586  0.40579  1.0000
  C   C8        1.0  0.08784  0.24414  0.59421  1.0000
  C   C9        1.0  0.91346  0.91676  0.28871  1.0000
  C   C10       1.0  0.08653  0.08324  0.71129  1.0000
  C   C11       1.0  0.81730  0.07440  0.33384  1.0000
  C   C12       1.0  0.18270  0.92560  0.66617  1.0000
  C   C13       1.0  0.82600  0.33862  0.08940  1.0000
  C   C14       1.0  0.17400  0.66138  0.91060  1.0000
  C   C15       1.0  0.69191  0.29938  0.00004  1.0000
  C   C16       1.0  0.30809  0.70061  0.99996  1.0000
  N   N1        1.0  0.78201  0.25332  0.25486  1.0000
  N   N2        1.0  0.21799  0.74668  0.74514  1.0000
  N   N3        1.0  0.68033  0.35258  0.35473  1.0000
  N   N4        1.0  0.31967  0.64742  0.64527  1.0000
  N   N5        1.0  0.64962  0.24425  0.49644  1.0000
  N   N6        1.0  0.35038  0.75575  0.50356  1.0000
  O   O1        1.0  0.69160  0.40078  0.86432  1.0000
  O   O2        1.0  0.30841  0.59922  0.13568  1.0000
  O   O3        1.0  0.29664  0.18937  0.93440  1.0000
  O   O4        1.0  0.70336  0.81063  0.06560  1.0000
  O   O5        1.0  0.59827  0.16621  0.06852  1.0000
  O   O6        1.0  0.40172  0.83379  0.93149  1.0000
