data_image0
_chemical_formula_structural       Mn4H36C28N12O20
_chemical_formula_sum              "Mn4 H36 C28 N12 O20"
_cell_length_a       6.72375
_cell_length_b       11.446
_cell_length_c       12.0981
_cell_angle_alpha    107.186
_cell_angle_beta     90.0019
_cell_angle_gamma    89.9984

_space_group_name_H-M_alt    "P 1"
_space_group_IT_number       1

loop_
  _space_group_symop_operation_xyz
  'x, y, z'

loop_
  _atom_site_type_symbol
  _atom_site_label
  _atom_site_symmetry_multiplicity
  _atom_site_fract_x
  _atom_site_fract_y
  _atom_site_fract_z
  _atom_site_occupancy
  Mn  Mn1       1.0  0.90135  0.57407  0.82986  1.0000
  Mn  Mn2       1.0  0.40127  0.92596  0.67015  1.0000
  Mn  Mn3       1.0  0.09882  0.42559  0.17020  1.0000
  Mn  Mn4       1.0  0.59888  0.07438  0.32980  1.0000
  H   H1        1.0  0.80994  0.38354  0.53398  1.0000
  H   H2        1.0  0.30995  0.11647  0.96604  1.0000
  H   H3        1.0  0.19045  0.61648  0.46604  1.0000
  H   H4        1.0  0.69044  0.88351  0.03396  1.0000
  H   H5        1.0  0.51948  0.67775  0.01413  1.0000
  H   H6        1.0  0.01952  0.82225  0.48583  1.0000
  H   H7        1.0  0.48036  0.32215  0.98589  1.0000
  H   H8        1.0  0.98032  0.17785  0.51413  1.0000
  H   H9        1.0  0.73357  0.66277  0.09458  1.0000
  H   H10       1.0  0.23356  0.83726  0.40537  1.0000
  H   H11       1.0  0.26622  0.33714  0.90548  1.0000
  H   H12       1.0  0.76622  0.16284  0.59456  1.0000
  H   H13       1.0  0.41911  0.62813  0.19493  1.0000
  H   H14       1.0  0.91907  0.87190  0.30506  1.0000
  H   H15       1.0  0.58069  0.37178  0.80514  1.0000
  H   H16       1.0  0.08071  0.12819  0.69486  1.0000
  H   H17       1.0  0.57381  0.49767  0.15768  1.0000
  H   H18       1.0  0.07373  0.00238  0.34233  1.0000
  H   H19       1.0  0.42605  0.50226  0.84238  1.0000
  H   H20       1.0  0.92611  0.99769  0.65760  1.0000
  H   H21       1.0  0.74365  0.49039  0.38422  1.0000
  H   H22       1.0  0.24365  0.00961  0.11579  1.0000
  H   H23       1.0  0.25661  0.50972  0.61585  1.0000
  H   H24       1.0  0.75662  0.99028  0.88416  1.0000
  H   H25       1.0  0.77632  0.46138  0.97299  1.0000
  H   H26       1.0  0.27634  0.03862  0.52700  1.0000
  H   H27       1.0  0.22340  0.53848  0.02712  1.0000
  H   H28       1.0  0.72337  0.96151  0.47288  1.0000
  H   H29       1.0  0.93670  0.31701  0.79481  1.0000
  H   H30       1.0  0.43669  0.18301  0.70521  1.0000
  H   H31       1.0  0.06351  0.68283  0.20513  1.0000
  H   H32       1.0  0.56352  0.81716  0.29486  1.0000
  H   H33       1.0  0.11430  0.35364  0.72075  1.0000
  H   H34       1.0  0.61429  0.14636  0.77926  1.0000
  H   H35       1.0  0.88601  0.64627  0.27923  1.0000
  H   H36       1.0  0.38600  0.85372  0.22075  1.0000
  C   C1        1.0  0.72190  0.77815  0.75167  1.0000
  C   C2        1.0  0.22190  0.72187  0.74833  1.0000
  C   C3        1.0  0.27801  0.22186  0.24850  1.0000
  C   C4        1.0  0.77799  0.27814  0.25151  1.0000
  C   C5        1.0  0.72210  0.67226  0.64512  1.0000
  C   C6        1.0  0.22211  0.82775  0.85489  1.0000
  C   C7        1.0  0.27773  0.32768  0.35498  1.0000
  C   C8        1.0  0.77773  0.17232  0.14502  1.0000
  C   C9        1.0  0.77661  0.48022  0.55461  1.0000
  C   C10       1.0  0.27663  0.01978  0.94540  1.0000
  C   C11       1.0  0.22357  0.51977  0.44543  1.0000
  C   C12       1.0  0.72357  0.98023  0.05458  1.0000
  C   C13       1.0  0.69749  0.65752  0.52692  1.0000
  C   C14       1.0  0.19750  0.84249  0.97309  1.0000
  C   C15       1.0  0.30243  0.34247  0.47319  1.0000
  C   C16       1.0  0.80245  0.15752  0.02682  1.0000
  C   C17       1.0  0.64154  0.74207  0.46071  1.0000
  C   C18       1.0  0.14153  0.75794  0.03929  1.0000
  C   C19       1.0  0.35846  0.25792  0.53937  1.0000
  C   C20       1.0  0.85849  0.24206  0.96063  1.0000
  C   C21       1.0  0.60736  0.61276  0.04534  1.0000
  C   C22       1.0  0.10738  0.88725  0.45463  1.0000
  C   C23       1.0  0.39244  0.38713  0.95470  1.0000
  C   C24       1.0  0.89242  0.11285  0.54531  1.0000
  C   C25       1.0  0.48086  0.55666  0.12167  1.0000
  C   C26       1.0  0.98081  0.94338  0.37833  1.0000
  C   C27       1.0  0.51895  0.44326  0.87840  1.0000
  C   C28       1.0  0.01898  0.05671  0.62159  1.0000
  N   N1        1.0  0.77084  0.56059  0.65955  1.0000
  N   N2        1.0  0.27087  0.93941  0.84046  1.0000
  N   N3        1.0  0.22918  0.43935  0.34049  1.0000
  N   N4        1.0  0.72915  0.06065  0.15951  1.0000
  N   N5        1.0  0.73460  0.53526  0.47282  1.0000
  N   N6        1.0  0.23460  0.96474  0.02719  1.0000
  N   N7        1.0  0.26552  0.46477  0.52724  1.0000
  N   N8        1.0  0.76554  0.03522  0.97277  1.0000
  N   N9        1.0  0.68497  0.51808  0.94294  1.0000
  N   N10       1.0  0.18500  0.98191  0.55703  1.0000
  N   N11       1.0  0.31482  0.48180  0.05714  1.0000
  N   N12       1.0  0.81478  0.01821  0.44288  1.0000
  O   O1        1.0  0.68301  0.88627  0.74761  1.0000
  O   O2        1.0  0.18304  0.61374  0.75239  1.0000
  O   O3        1.0  0.31788  0.11378  0.25241  1.0000
  O   O4        1.0  0.81787  0.38621  0.24761  1.0000
  O   O5        1.0  0.76620  0.75413  0.84510  1.0000
  O   O6        1.0  0.26616  0.74589  0.65490  1.0000
  O   O7        1.0  0.23287  0.24584  0.15512  1.0000
  O   O8        1.0  0.73283  0.25416  0.34488  1.0000
  O   O9        1.0  0.56659  0.84580  0.51427  1.0000
  O   O10       1.0  0.06660  0.65420  0.98572  1.0000
  O   O11       1.0  0.43326  0.15415  0.48575  1.0000
  O   O12       1.0  0.93326  0.34584  0.01426  1.0000
  O   O13       1.0  0.67166  0.70828  0.35166  1.0000
  O   O14       1.0  0.17161  0.79174  0.14835  1.0000
  O   O15       1.0  0.32860  0.29175  0.64846  1.0000
  O   O16       1.0  0.82864  0.20823  0.85154  1.0000
  O   O17       1.0  0.98709  0.38190  0.76199  1.0000
  O   O18       1.0  0.48707  0.11811  0.73802  1.0000
  O   O19       1.0  0.01317  0.61796  0.23797  1.0000
  O   O20       1.0  0.51316  0.88203  0.26201  1.0000
