data_image0
_chemical_formula_structural       K4Cd2H4C16N12O16
_chemical_formula_sum              "K4 Cd2 H4 C16 N12 O16"
_cell_length_a       8.18839
_cell_length_b       9.24774
_cell_length_c       10.0237
_cell_angle_alpha    95.1291
_cell_angle_beta     96.2892
_cell_angle_gamma    100.437

_space_group_name_H-M_alt    "P 1"
_space_group_IT_number       1

loop_
  _space_group_symop_operation_xyz
  'x, y, z'

loop_
  _atom_site_type_symbol
  _atom_site_label
  _atom_site_symmetry_multiplicity
  _atom_site_fract_x
  _atom_site_fract_y
  _atom_site_fract_z
  _atom_site_occupancy
  K   K1        1.0  0.32738  0.37239  0.59550  1.0000
  K   K2        1.0  0.67262  0.62761  0.40450  1.0000
  K   K3        1.0  0.93794  0.07256  0.80816  1.0000
  K   K4        1.0  0.06206  0.92744  0.19184  1.0000
  Cd  Cd1       1.0  0.53573  0.75367  0.96929  1.0000
  Cd  Cd2       1.0  0.46427  0.24634  0.03071  1.0000
  H   H1        1.0  0.06488  0.66917  0.76127  1.0000
  H   H2        1.0  0.93512  0.33083  0.23873  1.0000
  H   H3        1.0  0.32224  0.78484  0.45490  1.0000
  H   H4        1.0  0.67776  0.21516  0.54510  1.0000
  C   C1        1.0  0.82818  0.59159  0.89166  1.0000
  C   C2        1.0  0.17182  0.40841  0.10834  1.0000
  C   C3        1.0  0.88597  0.46525  0.84349  1.0000
  C   C4        1.0  0.11403  0.53474  0.15651  1.0000
  C   C5        1.0  0.88980  0.75092  0.88586  1.0000
  C   C6        1.0  0.11020  0.24908  0.11414  1.0000
  C   C7        1.0  0.02322  0.44979  0.76229  1.0000
  C   C8        1.0  0.97678  0.55021  0.23771  1.0000
  C   C9        1.0  0.40344  0.87461  0.69898  1.0000
  C   C10       1.0  0.59656  0.12539  0.30102  1.0000
  C   C11       1.0  0.34035  0.98445  0.63296  1.0000
  C   C12       1.0  0.65966  0.01555  0.36704  1.0000
  C   C13       1.0  0.43108  0.72563  0.65127  1.0000
  C   C14       1.0  0.56892  0.27437  0.34873  1.0000
  C   C15       1.0  0.27376  0.98776  0.49065  1.0000
  C   C16       1.0  0.72624  0.01224  0.50935  1.0000
  N   N1        1.0  0.69620  0.54585  0.95730  1.0000
  N   N2        1.0  0.30380  0.45416  0.04270  1.0000
  N   N3        1.0  0.67473  0.39810  0.94946  1.0000
  N   N4        1.0  0.32527  0.60190  0.05054  1.0000
  N   N5        1.0  0.78788  0.34610  0.88264  1.0000
  N   N6        1.0  0.21212  0.65390  0.11736  1.0000
  N   N7        1.0  0.44811  0.92967  0.82989  1.0000
  N   N8        1.0  0.55189  0.07033  0.17011  1.0000
  N   N9        1.0  0.41573  0.06672  0.84299  1.0000
  N   N10       1.0  0.58427  0.93328  0.15701  1.0000
  N   N11       1.0  0.35083  0.10261  0.72605  1.0000
  N   N12       1.0  0.64918  0.89739  0.27395  1.0000
  O   O1        1.0  0.81713  0.84353  0.94642  1.0000
  O   O2        1.0  0.18287  0.15647  0.05358  1.0000
  O   O3        1.0  0.01528  0.79112  0.82324  1.0000
  O   O4        1.0  0.98472  0.20888  0.17676  1.0000
  O   O5        1.0  0.06309  0.32875  0.73440  1.0000
  O   O6        1.0  0.93690  0.67124  0.26560  1.0000
  O   O7        1.0  0.10139  0.57062  0.71806  1.0000
  O   O8        1.0  0.89861  0.42938  0.28194  1.0000
  O   O9        1.0  0.49298  0.65044  0.73613  1.0000
  O   O10       1.0  0.50702  0.34956  0.26387  1.0000
  O   O11       1.0  0.39255  0.67924  0.52485  1.0000
  O   O12       1.0  0.60745  0.32076  0.47515  1.0000
  O   O13       1.0  0.22149  0.09595  0.45005  1.0000
  O   O14       1.0  0.77851  0.90406  0.54995  1.0000
  O   O15       1.0  0.27343  0.86913  0.40627  1.0000
  O   O16       1.0  0.72657  0.13087  0.59372  1.0000
