data_image0
_chemical_formula_structural       Cu2H12C10N6O6
_chemical_formula_sum              "Cu2 H12 C10 N6 O6"
_cell_length_a       6.42046
_cell_length_b       7.18887
_cell_length_c       8.55277
_cell_angle_alpha    90.6295
_cell_angle_beta     100.773
_cell_angle_gamma    101.765

_space_group_name_H-M_alt    "P 1"
_space_group_IT_number       1

loop_
  _space_group_symop_operation_xyz
  'x, y, z'

loop_
  _atom_site_type_symbol
  _atom_site_label
  _atom_site_symmetry_multiplicity
  _atom_site_fract_x
  _atom_site_fract_y
  _atom_site_fract_z
  _atom_site_occupancy
  Cu  Cu1       1.0  0.50001  0.50000  0.50000  1.0000
  Cu  Cu2       1.0  0.00000  0.49999  0.50000  1.0000
  H   H1        1.0  0.14844  0.98742  0.81324  1.0000
  H   H2        1.0  0.85156  0.01258  0.18675  1.0000
  H   H3        1.0  0.72680  0.76900  0.95926  1.0000
  H   H4        1.0  0.27319  0.23099  0.04073  1.0000
  H   H5        1.0  0.97898  0.64342  0.12989  1.0000
  H   H6        1.0  0.02103  0.35658  0.87011  1.0000
  H   H7        1.0  0.11603  0.44893  0.16141  1.0000
  H   H8        1.0  0.88397  0.55107  0.83859  1.0000
  H   H9        1.0  0.26428  0.67925  0.12657  1.0000
  H   H10       1.0  0.73573  0.32075  0.87343  1.0000
  H   H11       1.0  0.19188  0.78406  0.37035  1.0000
  H   H12       1.0  0.80811  0.21593  0.62966  1.0000
  C   C1        1.0  0.35896  0.71640  0.73788  1.0000
  C   C2        1.0  0.64104  0.28359  0.26212  1.0000
  C   C3        1.0  0.43032  0.86259  0.87381  1.0000
  C   C4        1.0  0.56967  0.13740  0.12619  1.0000
  C   C5        1.0  0.30135  0.99286  0.89578  1.0000
  C   C6        1.0  0.69864  0.00714  0.10421  1.0000
  C   C7        1.0  0.62867  0.87093  0.97839  1.0000
  C   C8        1.0  0.37132  0.12907  0.02159  1.0000
  C   C9        1.0  0.13213  0.60209  0.18090  1.0000
  C   C10       1.0  0.86787  0.39791  0.81910  1.0000
  N   N1        1.0  0.26873  0.28803  0.54468  1.0000
  N   N2        1.0  0.73127  0.71198  0.45532  1.0000
  N   N3        1.0  0.22400  0.14620  0.45979  1.0000
  N   N4        1.0  0.77601  0.85382  0.54023  1.0000
  N   N5        1.0  0.17458  0.00872  0.37564  1.0000
  N   N6        1.0  0.82543  0.99128  0.62439  1.0000
  O   O1        1.0  0.50262  0.63364  0.70295  1.0000
  O   O2        1.0  0.49739  0.36636  0.29705  1.0000
  O   O3        1.0  0.15994  0.68852  0.66814  1.0000
  O   O4        1.0  0.84006  0.31147  0.33185  1.0000
  O   O5        1.0  0.18515  0.64356  0.35068  1.0000
  O   O6        1.0  0.81485  0.35644  0.64932  1.0000
