data_image0
_chemical_formula_structural       Zn4P4H20C20N4Cl4O12
_chemical_formula_sum              "Zn4 P4 H20 C20 N4 Cl4 O12"
_cell_length_a       4.93449
_cell_length_b       8.28708
_cell_length_c       20.8868
_cell_angle_alpha    89.9999
_cell_angle_beta     90
_cell_angle_gamma    103.786

_space_group_name_H-M_alt    "P 1"
_space_group_IT_number       1

loop_
  _space_group_symop_operation_xyz
  'x, y, z'

loop_
  _atom_site_type_symbol
  _atom_site_label
  _atom_site_symmetry_multiplicity
  _atom_site_fract_x
  _atom_site_fract_y
  _atom_site_fract_z
  _atom_site_occupancy
  Zn  Zn1       1.0  0.70021  0.66967  0.82084  1.0000
  Zn  Zn2       1.0  0.79979  0.83033  0.32084  1.0000
  Zn  Zn3       1.0  0.29979  0.33033  0.17916  1.0000
  Zn  Zn4       1.0  0.20021  0.16967  0.67916  1.0000
  P   P1        1.0  0.10225  0.42310  0.80239  1.0000
  P   P2        1.0  0.39775  0.07690  0.30239  1.0000
  P   P3        1.0  0.89775  0.57690  0.19761  1.0000
  P   P4        1.0  0.60225  0.92310  0.69761  1.0000
  H   H1        1.0  0.04713  0.44477  0.94405  1.0000
  H   H2        1.0  0.45287  0.05523  0.44405  1.0000
  H   H3        1.0  0.95288  0.55523  0.05594  1.0000
  H   H4        1.0  0.54713  0.94477  0.55595  1.0000
  H   H5        1.0  0.66980  0.29165  0.01934  1.0000
  H   H6        1.0  0.83019  0.20836  0.51934  1.0000
  H   H7        1.0  0.33019  0.70836  0.98066  1.0000
  H   H8        1.0  0.16981  0.79165  0.48066  1.0000
  H   H9        1.0  0.27708  0.07369  0.97462  1.0000
  H   H10       1.0  0.22292  0.42631  0.47462  1.0000
  H   H11       1.0  0.72291  0.92631  0.02538  1.0000
  H   H12       1.0  0.77709  0.57369  0.52538  1.0000
  H   H13       1.0  0.27792  0.00802  0.85690  1.0000
  H   H14       1.0  0.22208  0.49197  0.35690  1.0000
  H   H15       1.0  0.72207  0.99197  0.14310  1.0000
  H   H16       1.0  0.77792  0.50802  0.64310  1.0000
  H   H17       1.0  0.62111  0.15783  0.79191  1.0000
  H   H18       1.0  0.87890  0.34217  0.29191  1.0000
  H   H19       1.0  0.37889  0.84217  0.20809  1.0000
  H   H20       1.0  0.12110  0.65783  0.70809  1.0000
  C   C1        1.0  0.85631  0.31136  0.86198  1.0000
  C   C2        1.0  0.64369  0.18864  0.36198  1.0000
  C   C3        1.0  0.14369  0.68864  0.13802  1.0000
  C   C4        1.0  0.35631  0.81136  0.63802  1.0000
  C   C5        1.0  0.87153  0.34881  0.92700  1.0000
  C   C6        1.0  0.62847  0.15119  0.42700  1.0000
  C   C7        1.0  0.12847  0.65119  0.07300  1.0000
  C   C8        1.0  0.37153  0.84880  0.57300  1.0000
  C   C9        1.0  0.66293  0.26400  0.96824  1.0000
  C   C10       1.0  0.83707  0.23600  0.46824  1.0000
  C   C11       1.0  0.33707  0.73600  0.03176  1.0000
  C   C12       1.0  0.16293  0.76400  0.53176  1.0000
  C   C13       1.0  0.44359  0.14106  0.94385  1.0000
  C   C14       1.0  0.05641  0.35894  0.44385  1.0000
  C   C15       1.0  0.55641  0.85894  0.05615  1.0000
  C   C16       1.0  0.94359  0.64106  0.55615  1.0000
  C   C17       1.0  0.43973  0.10420  0.87913  1.0000
  C   C18       1.0  0.06028  0.39580  0.37913  1.0000
  C   C19       1.0  0.56027  0.89580  0.12087  1.0000
  C   C20       1.0  0.93973  0.60420  0.62087  1.0000
  N   N1        1.0  0.64195  0.18928  0.84072  1.0000
  N   N2        1.0  0.85805  0.31072  0.34072  1.0000
  N   N3        1.0  0.35805  0.81072  0.15928  1.0000
  N   N4        1.0  0.14195  0.68928  0.65928  1.0000
  Cl  Cl1       1.0  0.85875  0.80429  0.90982  1.0000
  Cl  Cl2       1.0  0.64126  0.69572  0.40982  1.0000
  Cl  Cl3       1.0  0.14126  0.19572  0.09018  1.0000
  Cl  Cl4       1.0  0.35874  0.30428  0.59018  1.0000
  O   O1        1.0  0.97206  0.56249  0.77674  1.0000
  O   O2        1.0  0.52794  0.93751  0.27674  1.0000
  O   O3        1.0  0.02794  0.43751  0.22326  1.0000
  O   O4        1.0  0.47207  0.06249  0.72326  1.0000
  O   O5        1.0  0.37220  0.48766  0.83950  1.0000
  O   O6        1.0  0.12780  0.01234  0.33950  1.0000
  O   O7        1.0  0.62779  0.51234  0.16050  1.0000
  O   O8        1.0  0.87220  0.98766  0.66050  1.0000
  O   O9        1.0  0.10867  0.29430  0.75133  1.0000
  O   O10       1.0  0.39134  0.20570  0.25133  1.0000
  O   O11       1.0  0.89134  0.70570  0.24867  1.0000
  O   O12       1.0  0.60867  0.79430  0.74867  1.0000
