data_image0
_chemical_formula_structural       Ag6P2H10C14S4N2O18F12
_chemical_formula_sum              "Ag6 P2 H10 C14 S4 N2 O18 F12"
_cell_length_a       9.05552
_cell_length_b       9.53442
_cell_length_c       12.3442
_cell_angle_alpha    93.5857
_cell_angle_beta     106.482
_cell_angle_gamma    117.511

_space_group_name_H-M_alt    "P 1"
_space_group_IT_number       1

loop_
  _space_group_symop_operation_xyz
  'x, y, z'

loop_
  _atom_site_type_symbol
  _atom_site_label
  _atom_site_symmetry_multiplicity
  _atom_site_fract_x
  _atom_site_fract_y
  _atom_site_fract_z
  _atom_site_occupancy
  Ag  Ag1       1.0  0.34644  0.49697  0.51218  1.0000
  Ag  Ag2       1.0  0.65356  0.50303  0.48782  1.0000
  Ag  Ag3       1.0  0.33929  0.84371  0.45871  1.0000
  Ag  Ag4       1.0  0.66071  0.15629  0.54129  1.0000
  Ag  Ag5       1.0  0.04931  0.87204  0.51713  1.0000
  Ag  Ag6       1.0  0.95069  0.12796  0.48287  1.0000
  P   P1        1.0  0.72177  0.85196  0.61364  1.0000
  P   P2        1.0  0.27823  0.14804  0.38636  1.0000
  H   H1        1.0  0.91331  0.72739  0.78157  1.0000
  H   H2        1.0  0.08669  0.27261  0.21843  1.0000
  H   H3        1.0  0.94301  0.71773  0.98897  1.0000
  H   H4        1.0  0.05699  0.28227  0.01103  1.0000
  H   H5        1.0  0.80220  0.83608  0.08591  1.0000
  H   H6        1.0  0.19780  0.16392  0.91409  1.0000
  H   H7        1.0  0.63698  0.96060  0.96915  1.0000
  H   H8        1.0  0.36302  0.03940  0.03085  1.0000
  H   H9        1.0  0.61781  0.96221  0.77722  1.0000
  H   H10       1.0  0.38219  0.03779  0.22278  1.0000
  C   C1        1.0  0.76179  0.84749  0.76646  1.0000
  C   C2        1.0  0.23821  0.15252  0.23354  1.0000
  C   C3        1.0  0.85566  0.77830  0.82658  1.0000
  C   C4        1.0  0.14434  0.22170  0.17342  1.0000
  C   C5        1.0  0.87130  0.77354  0.94207  1.0000
  C   C6        1.0  0.12870  0.22647  0.05794  1.0000
  C   C7        1.0  0.79372  0.83859  0.99633  1.0000
  C   C8        1.0  0.20628  0.16141  0.00367  1.0000
  C   C9        1.0  0.70268  0.90843  0.93391  1.0000
  C   C10       1.0  0.29732  0.09157  0.06609  1.0000
  C   C11       1.0  0.17216  0.55697  0.82528  1.0000
  C   C12       1.0  0.82784  0.44303  0.17472  1.0000
  C   C13       1.0  0.56231  0.33158  0.81051  1.0000
  C   C14       1.0  0.43770  0.66842  0.18949  1.0000
  S   S1        1.0  0.07805  0.53077  0.66516  1.0000
  S   S2        1.0  0.92195  0.46923  0.33484  1.0000
  S   S3        1.0  0.42433  0.10529  0.77090  1.0000
  S   S4        1.0  0.57567  0.89471  0.22910  1.0000
  N   N1        1.0  0.68950  0.91068  0.82279  1.0000
  N   N2        1.0  0.31050  0.08932  0.17721  1.0000
  O   O1        1.0  0.51704  0.76156  0.55865  1.0000
  O   O2        1.0  0.48296  0.23844  0.44135  1.0000
  O   O3        1.0  0.81023  0.03281  0.61231  1.0000
  O   O4        1.0  0.18977  0.96719  0.38769  1.0000
  O   O5        1.0  0.13107  0.42189  0.62026  1.0000
  O   O6        1.0  0.86893  0.57811  0.37974  1.0000
  O   O7        1.0  0.16259  0.69459  0.64672  1.0000
  O   O8        1.0  0.83740  0.30541  0.35328  1.0000
  O   O9        1.0  0.80683  0.76383  0.57142  1.0000
  O   O10       1.0  0.19317  0.23616  0.42858  1.0000
  O   O11       1.0  0.88613  0.45476  0.64228  1.0000
  O   O12       1.0  0.11387  0.54524  0.35771  1.0000
  O   O13       1.0  0.24758  0.07688  0.70527  1.0000
  O   O14       1.0  0.75242  0.92312  0.29473  1.0000
  O   O15       1.0  0.50992  0.05779  0.70183  1.0000
  O   O16       1.0  0.49007  0.94221  0.29817  1.0000
  O   O17       1.0  0.44627  0.05841  0.88151  1.0000
  O   O18       1.0  0.55373  0.94159  0.11849  1.0000
  F   F1        1.0  0.09820  0.41163  0.85486  1.0000
  F   F2        1.0  0.90180  0.58837  0.14514  1.0000
  F   F3        1.0  0.13939  0.65911  0.88299  1.0000
  F   F4        1.0  0.86061  0.34089  0.11701  1.0000
  F   F5        1.0  0.35039  0.61876  0.86132  1.0000
  F   F6        1.0  0.64961  0.38124  0.13867  1.0000
  F   F7        1.0  0.50572  0.39602  0.87957  1.0000
  F   F8        1.0  0.49429  0.60398  0.12043  1.0000
  F   F9        1.0  0.73599  0.38050  0.86850  1.0000
  F   F10       1.0  0.26401  0.61949  0.13150  1.0000
  F   F11       1.0  0.55210  0.39345  0.71420  1.0000
  F   F12       1.0  0.44791  0.60655  0.28580  1.0000
