data_image0
_chemical_formula_structural       Zn4H16C20N24O4
_chemical_formula_sum              "Zn4 H16 C20 N24 O4"
_cell_length_a       8.69274
_cell_length_b       8.69274
_cell_length_c       10.405
_cell_angle_alpha    107.865
_cell_angle_beta     107.866
_cell_angle_gamma    91.8623

_space_group_name_H-M_alt    "P 1"
_space_group_IT_number       1

loop_
  _space_group_symop_operation_xyz
  'x, y, z'

loop_
  _atom_site_type_symbol
  _atom_site_label
  _atom_site_symmetry_multiplicity
  _atom_site_fract_x
  _atom_site_fract_y
  _atom_site_fract_z
  _atom_site_occupancy
  Zn  Zn1       1.0  0.71485  0.96296  0.62083  1.0000
  Zn  Zn2       1.0  0.03704  0.28515  0.87917  1.0000
  Zn  Zn3       1.0  0.28515  0.03704  0.37917  1.0000
  Zn  Zn4       1.0  0.96296  0.71485  0.12083  1.0000
  H   H1        1.0  0.64348  0.03499  0.33992  1.0000
  H   H2        1.0  0.96502  0.35652  0.16008  1.0000
  H   H3        1.0  0.35653  0.96501  0.66008  1.0000
  H   H4        1.0  0.03499  0.64348  0.83992  1.0000
  H   H5        1.0  0.71402  0.96986  0.19319  1.0000
  H   H6        1.0  0.03014  0.28598  0.30681  1.0000
  H   H7        1.0  0.28598  0.03014  0.80681  1.0000
  H   H8        1.0  0.96986  0.71402  0.69319  1.0000
  H   H9        1.0  0.66641  0.58977  0.51442  1.0000
  H   H10       1.0  0.41023  0.33359  0.98558  1.0000
  H   H11       1.0  0.33359  0.41023  0.48558  1.0000
  H   H12       1.0  0.58977  0.66641  0.01442  1.0000
  H   H13       1.0  0.77225  0.35249  0.38361  1.0000
  H   H14       1.0  0.64751  0.22775  0.11639  1.0000
  H   H15       1.0  0.22775  0.64751  0.61639  1.0000
  H   H16       1.0  0.35249  0.77225  0.88361  1.0000
  C   C1        1.0  0.42238  0.74560  0.39542  1.0000
  C   C2        1.0  0.25440  0.57762  0.10458  1.0000
  C   C3        1.0  0.57763  0.25440  0.60458  1.0000
  C   C4        1.0  0.74560  0.42237  0.89542  1.0000
  C   C5        1.0  0.47878  0.59730  0.32510  1.0000
  C   C6        1.0  0.40269  0.52123  0.17490  1.0000
  C   C7        1.0  0.52123  0.40269  0.67490  1.0000
  C   C8        1.0  0.59731  0.47878  0.82510  1.0000
  C   C9        1.0  0.61088  0.53371  0.39886  1.0000
  C   C10       1.0  0.46629  0.38912  0.10113  1.0000
  C   C11       1.0  0.38912  0.46629  0.60113  1.0000
  C   C12       1.0  0.53371  0.61088  0.89887  1.0000
  C   C13       1.0  0.67004  0.40087  0.32469  1.0000
  C   C14       1.0  0.59913  0.32996  0.17530  1.0000
  C   C15       1.0  0.32996  0.59913  0.67530  1.0000
  C   C16       1.0  0.40087  0.67004  0.82469  1.0000
  C   C17       1.0  0.81208  0.87795  0.35469  1.0000
  C   C18       1.0  0.12205  0.18792  0.14531  1.0000
  C   C19       1.0  0.18792  0.12205  0.64531  1.0000
  C   C20       1.0  0.87795  0.81208  0.85469  1.0000
  N   N1        1.0  0.29501  0.79735  0.31870  1.0000
  N   N2        1.0  0.20264  0.70499  0.18130  1.0000
  N   N3        1.0  0.70498  0.20264  0.68130  1.0000
  N   N4        1.0  0.79736  0.29501  0.81870  1.0000
  N   N5        1.0  0.91594  0.78483  0.30358  1.0000
  N   N6        1.0  0.21517  0.08406  0.19642  1.0000
  N   N7        1.0  0.08406  0.21517  0.69642  1.0000
  N   N8        1.0  0.78483  0.91594  0.80358  1.0000
  N   N9        1.0  0.99771  0.72207  0.40651  1.0000
  N   N10       1.0  0.27792  0.00228  0.09349  1.0000
  N   N11       1.0  0.00228  0.27793  0.59349  1.0000
  N   N12       1.0  0.72208  0.99771  0.90651  1.0000
  N   N13       1.0  0.94847  0.77482  0.51505  1.0000
  N   N14       1.0  0.22517  0.05152  0.98495  1.0000
  N   N15       1.0  0.05153  0.22518  0.48495  1.0000
  N   N16       1.0  0.77482  0.94847  0.01505  1.0000
  N   N17       1.0  0.83265  0.87391  0.48757  1.0000
  N   N18       1.0  0.12609  0.16735  0.01243  1.0000
  N   N19       1.0  0.16735  0.12609  0.51243  1.0000
  N   N20       1.0  0.87391  0.83265  0.98757  1.0000
  N   N21       1.0  0.70274  0.95519  0.28421  1.0000
  N   N22       1.0  0.04481  0.29726  0.21579  1.0000
  N   N23       1.0  0.29726  0.04481  0.71579  1.0000
  N   N24       1.0  0.95520  0.70274  0.78421  1.0000
  O   O1        1.0  0.49169  0.83492  0.52900  1.0000
  O   O2        1.0  0.16508  0.50831  0.97100  1.0000
  O   O3        1.0  0.50831  0.16508  0.47100  1.0000
  O   O4        1.0  0.83492  0.49169  0.02900  1.0000
