data_image0
_chemical_formula_structural       Zn5H24C36N14O10
_chemical_formula_sum              "Zn5 H24 C36 N14 O10"
_cell_length_a       7.57971
_cell_length_b       10.2705
_cell_length_c       12.0631
_cell_angle_alpha    103.089
_cell_angle_beta     96.8605
_cell_angle_gamma    99.5314

_space_group_name_H-M_alt    "P 1"
_space_group_IT_number       1

loop_
  _space_group_symop_operation_xyz
  'x, y, z'

loop_
  _atom_site_type_symbol
  _atom_site_label
  _atom_site_symmetry_multiplicity
  _atom_site_fract_x
  _atom_site_fract_y
  _atom_site_fract_z
  _atom_site_occupancy
  Zn  Zn1       1.0  0.49999  0.50002  0.49998  1.0000
  Zn  Zn2       1.0  0.43075  0.16311  0.42474  1.0000
  Zn  Zn3       1.0  0.56925  0.83690  0.57527  1.0000
  Zn  Zn4       1.0  0.15060  0.31791  0.28767  1.0000
  Zn  Zn5       1.0  0.84940  0.68208  0.71233  1.0000
  H   H1        1.0  0.22971  0.95418  0.49669  1.0000
  H   H2        1.0  0.77029  0.04582  0.50331  1.0000
  H   H3        1.0  0.85341  0.32557  0.09538  1.0000
  H   H4        1.0  0.14659  0.67442  0.90462  1.0000
  H   H5        1.0  0.68311  0.08490  0.02630  1.0000
  H   H6        1.0  0.31689  0.91510  0.97370  1.0000
  H   H7        1.0  0.52660  0.99633  0.82337  1.0000
  H   H8        1.0  0.47340  0.00367  0.17663  1.0000
  H   H9        1.0  0.85412  0.47986  0.96251  1.0000
  H   H10       1.0  0.14589  0.52013  0.03749  1.0000
  H   H11       1.0  0.74662  0.61161  0.25731  1.0000
  H   H12       1.0  0.25338  0.38839  0.74270  1.0000
  H   H13       1.0  0.60056  0.57590  0.05486  1.0000
  H   H14       1.0  0.39943  0.42410  0.94514  1.0000
  H   H15       1.0  0.68077  0.75046  0.94635  1.0000
  H   H16       1.0  0.31923  0.24954  0.05365  1.0000
  H   H17       1.0  0.90689  0.96311  0.04262  1.0000
  H   H18       1.0  0.09311  0.03689  0.95739  1.0000
  H   H19       1.0  0.90456  0.53840  0.38571  1.0000
  H   H20       1.0  0.09544  0.46160  0.61429  1.0000
  H   H21       1.0  0.76514  0.10961  0.27266  1.0000
  H   H22       1.0  0.23486  0.89039  0.72735  1.0000
  H   H23       1.0  0.20988  0.31419  0.49124  1.0000
  H   H24       1.0  0.79013  0.68582  0.50876  1.0000
  C   C1        1.0  0.78115  0.28776  0.00714  1.0000
  C   C2        1.0  0.21885  0.71223  0.99286  1.0000
  C   C3        1.0  0.68577  0.15191  0.96796  1.0000
  C   C4        1.0  0.31423  0.84809  0.03204  1.0000
  C   C5        1.0  0.59693  0.10225  0.85497  1.0000
  C   C6        1.0  0.40306  0.89775  0.14503  1.0000
  C   C7        1.0  0.59878  0.18848  0.77946  1.0000
  C   C8        1.0  0.40122  0.81152  0.22054  1.0000
  C   C9        1.0  0.69030  0.32595  0.81981  1.0000
  C   C10       1.0  0.30971  0.67405  0.18019  1.0000
  C   C11       1.0  0.78353  0.37390  0.93372  1.0000
  C   C12       1.0  0.21647  0.62610  0.06628  1.0000
  C   C13       1.0  0.68005  0.41719  0.74366  1.0000
  C   C14       1.0  0.31995  0.58281  0.25634  1.0000
  C   C15       1.0  0.50964  0.14249  0.65995  1.0000
  C   C16       1.0  0.49037  0.85750  0.34006  1.0000
  C   C17       1.0  0.78366  0.68698  0.20931  1.0000
  C   C18       1.0  0.21633  0.31302  0.79069  1.0000
  C   C19       1.0  0.70138  0.66796  0.09617  1.0000
  C   C20       1.0  0.29862  0.33205  0.90383  1.0000
  C   C21       1.0  0.74523  0.76688  0.03533  1.0000
  C   C22       1.0  0.25477  0.23313  0.96467  1.0000
  C   C23       1.0  0.87147  0.88546  0.08861  1.0000
  C   C24       1.0  0.12853  0.11454  0.91139  1.0000
  C   C25       1.0  0.95849  0.90537  0.20239  1.0000
  C   C26       1.0  0.04151  0.09463  0.79761  1.0000
  C   C27       1.0  0.91472  0.80490  0.26316  1.0000
  C   C28       1.0  0.08528  0.19510  0.73684  1.0000
  C   C29       1.0  0.09874  0.02619  0.25718  1.0000
  C   C30       1.0  0.90126  0.97381  0.74282  1.0000
  C   C31       1.0  0.00994  0.82388  0.38045  1.0000
  C   C32       1.0  0.99007  0.17612  0.61955  1.0000
  C   C33       1.0  0.82974  0.43343  0.36421  1.0000
  C   C34       1.0  0.17025  0.56657  0.63579  1.0000
  C   C35       1.0  0.75999  0.21597  0.30576  1.0000
  C   C36       1.0  0.24001  0.78403  0.69424  1.0000
  N   N1        1.0  0.59445  0.36959  0.63526  1.0000
  N   N2        1.0  0.40556  0.63041  0.36475  1.0000
  N   N3        1.0  0.51855  0.23240  0.59486  1.0000
  N   N4        1.0  0.48146  0.76760  0.40514  1.0000
  N   N5        1.0  0.19235  0.03367  0.36009  1.0000
  N   N6        1.0  0.80765  0.96633  0.63991  1.0000
  N   N7        1.0  0.14517  0.93598  0.41798  1.0000
  N   N8        1.0  0.85484  0.06403  0.58202  1.0000
  N   N9        1.0  0.89346  0.32340  0.31104  1.0000
  N   N10       1.0  0.10654  0.67660  0.68896  1.0000
  N   N11       1.0  0.66492  0.39670  0.38839  1.0000
  N   N12       1.0  0.33507  0.60330  0.61160  1.0000
  N   N13       1.0  0.62065  0.25711  0.35079  1.0000
  N   N14       1.0  0.37935  0.74289  0.64921  1.0000
  O   O1        1.0  0.75285  0.54621  0.78744  1.0000
  O   O2        1.0  0.24716  0.45379  0.21257  1.0000
  O   O3        1.0  0.42482  0.01752  0.61402  1.0000
  O   O4        1.0  0.57518  0.98248  0.38598  1.0000
  O   O5        1.0  0.13581  0.12259  0.20518  1.0000
  O   O6        1.0  0.86420  0.87741  0.79482  1.0000
  O   O7        1.0  0.97770  0.74437  0.44447  1.0000
  O   O8        1.0  0.02231  0.25563  0.55553  1.0000
  O   O9        1.0  0.29457  0.33476  0.43825  1.0000
  O   O10       1.0  0.70543  0.66524  0.56175  1.0000
