data_image0
_chemical_formula_structural       Cu2H24C32N8O8
_chemical_formula_sum              "Cu2 H24 C32 N8 O8"
_cell_length_a       8.59581
_cell_length_b       9.75225
_cell_length_c       9.75223
_cell_angle_alpha    70.8277
_cell_angle_beta     86.2291
_cell_angle_gamma    86.229

_space_group_name_H-M_alt    "P 1"
_space_group_IT_number       1

loop_
  _space_group_symop_operation_xyz
  'x, y, z'

loop_
  _atom_site_type_symbol
  _atom_site_label
  _atom_site_symmetry_multiplicity
  _atom_site_fract_x
  _atom_site_fract_y
  _atom_site_fract_z
  _atom_site_occupancy
  Cu  Cu1       1.0  0.25000  0.33931  0.66069  1.0000
  Cu  Cu2       1.0  0.75000  0.66069  0.33931  1.0000
  H   H1        1.0  0.50291  0.17472  0.84742  1.0000
  H   H2        1.0  0.99709  0.15258  0.82528  1.0000
  H   H3        1.0  0.49709  0.82527  0.15259  1.0000
  H   H4        1.0  0.00291  0.84741  0.17473  1.0000
  H   H5        1.0  0.64672  0.93410  0.89926  1.0000
  H   H6        1.0  0.85329  0.10073  0.06590  1.0000
  H   H7        1.0  0.35328  0.06590  0.10073  1.0000
  H   H8        1.0  0.14671  0.89926  0.93410  1.0000
  H   H9        1.0  0.13351  0.16100  0.50695  1.0000
  H   H10       1.0  0.36649  0.49305  0.83900  1.0000
  H   H11       1.0  0.86650  0.83900  0.49305  1.0000
  H   H12       1.0  0.63351  0.50695  0.16100  1.0000
  H   H13       1.0  0.57703  0.75899  0.77531  1.0000
  H   H14       1.0  0.92298  0.22469  0.24101  1.0000
  H   H15       1.0  0.42298  0.24101  0.22469  1.0000
  H   H16       1.0  0.07702  0.77531  0.75900  1.0000
  H   H17       1.0  0.33803  0.73825  0.55710  1.0000
  H   H18       1.0  0.16197  0.44291  0.26174  1.0000
  H   H19       1.0  0.66197  0.26175  0.44290  1.0000
  H   H20       1.0  0.83803  0.55709  0.73825  1.0000
  H   H21       1.0  0.12594  0.94280  0.41632  1.0000
  H   H22       1.0  0.37406  0.58368  0.05720  1.0000
  H   H23       1.0  0.87406  0.05720  0.58368  1.0000
  H   H24       1.0  0.62594  0.41632  0.94280  1.0000
  C   C1        1.0  0.47268  0.09686  0.79611  1.0000
  C   C2        1.0  0.02732  0.20388  0.90314  1.0000
  C   C3        1.0  0.52732  0.90313  0.20389  1.0000
  C   C4        1.0  0.97268  0.79611  0.09687  1.0000
  C   C5        1.0  0.55247  0.96124  0.82404  1.0000
  C   C6        1.0  0.94754  0.17596  0.03876  1.0000
  C   C7        1.0  0.44753  0.03876  0.17596  1.0000
  C   C8        1.0  0.05247  0.82404  0.96124  1.0000
  C   C9        1.0  0.51353  0.86378  0.75555  1.0000
  C   C10       1.0  0.98647  0.24445  0.13622  1.0000
  C   C11       1.0  0.48647  0.13621  0.24445  1.0000
  C   C12       1.0  0.01353  0.75555  0.86379  1.0000
  C   C13       1.0  0.39356  0.90687  0.65774  1.0000
  C   C14       1.0  0.10643  0.34227  0.09313  1.0000
  C   C15       1.0  0.60643  0.09313  0.34226  1.0000
  C   C16       1.0  0.89356  0.65773  0.90687  1.0000
  C   C17       1.0  0.31793  0.84556  0.56641  1.0000
  C   C18       1.0  0.18206  0.43359  0.15444  1.0000
  C   C19       1.0  0.68206  0.15444  0.43359  1.0000
  C   C20       1.0  0.81794  0.56641  0.84556  1.0000
  C   C21       1.0  0.20727  0.94799  0.49465  1.0000
  C   C22       1.0  0.29272  0.50535  0.05201  1.0000
  C   C23       1.0  0.79273  0.05202  0.50535  1.0000
  C   C24       1.0  0.70727  0.49465  0.94798  1.0000
  C   C25       1.0  0.32019  0.04845  0.63552  1.0000
  C   C26       1.0  0.17981  0.36448  0.95155  1.0000
  C   C27       1.0  0.67981  0.95155  0.36448  1.0000
  C   C28       1.0  0.82019  0.63552  0.04845  1.0000
  C   C29       1.0  0.46675  0.48401  0.43408  1.0000
  C   C30       1.0  0.03325  0.56592  0.51599  1.0000
  C   C31       1.0  0.53325  0.51600  0.56592  1.0000
  C   C32       1.0  0.96674  0.43408  0.48400  1.0000
  N   N1        1.0  0.35622  0.14098  0.70322  1.0000
  N   N2        1.0  0.14379  0.29678  0.85902  1.0000
  N   N3        1.0  0.64379  0.85901  0.29678  1.0000
  N   N4        1.0  0.85621  0.70322  0.14099  1.0000
  N   N5        1.0  0.20883  0.07070  0.53596  1.0000
  N   N6        1.0  0.29117  0.46404  0.92930  1.0000
  N   N7        1.0  0.79117  0.92931  0.46404  1.0000
  N   N8        1.0  0.70883  0.53596  0.07069  1.0000
  O   O1        1.0  0.35531  0.39835  0.46026  1.0000
  O   O2        1.0  0.14470  0.53974  0.60165  1.0000
  O   O3        1.0  0.64470  0.60166  0.53974  1.0000
  O   O4        1.0  0.85530  0.46026  0.39834  1.0000
  O   O5        1.0  0.52793  0.54477  0.30938  1.0000
  O   O6        1.0  0.97208  0.69062  0.45523  1.0000
  O   O7        1.0  0.47207  0.45523  0.69062  1.0000
  O   O8        1.0  0.02793  0.30938  0.54477  1.0000
