data_image0
_chemical_formula_structural       Cd4H48C24Br12N12
_chemical_formula_sum              "Cd4 H48 C24 Br12 N12"
_cell_length_a       8.06531
_cell_length_b       8.66516
_cell_length_c       16.8826
_cell_angle_alpha    89.9998
_cell_angle_beta     95.5196
_cell_angle_gamma    90.0001

_space_group_name_H-M_alt    "P 1"
_space_group_IT_number       1

loop_
  _space_group_symop_operation_xyz
  'x, y, z'

loop_
  _atom_site_type_symbol
  _atom_site_label
  _atom_site_symmetry_multiplicity
  _atom_site_fract_x
  _atom_site_fract_y
  _atom_site_fract_z
  _atom_site_occupancy
  Cd  Cd1       1.0  0.78713  0.03288  0.19414  1.0000
  Cd  Cd2       1.0  0.21287  0.03289  0.30586  1.0000
  Cd  Cd3       1.0  0.21287  0.96712  0.80586  1.0000
  Cd  Cd4       1.0  0.78713  0.96712  0.69414  1.0000
  H   H1        1.0  0.41252  0.22225  0.14304  1.0000
  H   H2        1.0  0.58749  0.22224  0.35695  1.0000
  H   H3        1.0  0.58749  0.77775  0.85695  1.0000
  H   H4        1.0  0.41251  0.77776  0.64304  1.0000
  H   H5        1.0  0.66175  0.65323  0.15979  1.0000
  H   H6        1.0  0.33826  0.65323  0.34022  1.0000
  H   H7        1.0  0.33825  0.34677  0.84022  1.0000
  H   H8        1.0  0.66175  0.34677  0.65978  1.0000
  H   H9        1.0  0.89378  0.41501  0.18557  1.0000
  H   H10       1.0  0.10623  0.41502  0.31443  1.0000
  H   H11       1.0  0.10622  0.58499  0.81443  1.0000
  H   H12       1.0  0.89377  0.58499  0.68557  1.0000
  H   H13       1.0  0.33293  0.63550  0.17452  1.0000
  H   H14       1.0  0.66708  0.63550  0.32548  1.0000
  H   H15       1.0  0.66708  0.36450  0.82548  1.0000
  H   H16       1.0  0.33292  0.36450  0.67452  1.0000
  H   H17       1.0  0.23558  0.45769  0.14529  1.0000
  H   H18       1.0  0.76443  0.45769  0.35471  1.0000
  H   H19       1.0  0.76442  0.54231  0.85471  1.0000
  H   H20       1.0  0.23557  0.54232  0.64529  1.0000
  H   H21       1.0  0.39984  0.67864  0.03239  1.0000
  H   H22       1.0  0.60016  0.67864  0.46760  1.0000
  H   H23       1.0  0.60016  0.32136  0.96760  1.0000
  H   H24       1.0  0.39984  0.32136  0.53239  1.0000
  H   H25       1.0  0.31126  0.49681  0.00558  1.0000
  H   H26       1.0  0.68874  0.49681  0.49442  1.0000
  H   H27       1.0  0.68874  0.50319  0.99442  1.0000
  H   H28       1.0  0.31125  0.50319  0.50558  1.0000
  H   H29       1.0  0.09774  0.67758  0.96372  1.0000
  H   H30       1.0  0.90226  0.67758  0.53628  1.0000
  H   H31       1.0  0.90226  0.32242  0.03628  1.0000
  H   H32       1.0  0.09773  0.32242  0.46372  1.0000
  H   H33       1.0  0.03496  0.59767  0.05336  1.0000
  H   H34       1.0  0.96504  0.59767  0.44665  1.0000
  H   H35       1.0  0.96503  0.40233  0.94665  1.0000
  H   H36       1.0  0.03496  0.40233  0.55335  1.0000
  H   H37       1.0  0.15144  0.83093  0.12186  1.0000
  H   H38       1.0  0.84856  0.83093  0.37814  1.0000
  H   H39       1.0  0.84856  0.16907  0.87814  1.0000
  H   H40       1.0  0.15143  0.16907  0.62186  1.0000
  H   H41       1.0  0.99378  0.86193  0.05360  1.0000
  H   H42       1.0  0.00622  0.86193  0.44640  1.0000
  H   H43       1.0  0.00622  0.13807  0.94640  1.0000
  H   H44       1.0  0.99378  0.13807  0.55360  1.0000
  H   H45       1.0  0.18966  0.90589  0.03282  1.0000
  H   H46       1.0  0.81034  0.90589  0.46718  1.0000
  H   H47       1.0  0.81034  0.09411  0.96718  1.0000
  H   H48       1.0  0.18965  0.09411  0.53282  1.0000
  C   C1        1.0  0.51435  0.30452  0.15052  1.0000
  C   C2        1.0  0.48566  0.30452  0.34948  1.0000
  C   C3        1.0  0.48566  0.69548  0.84948  1.0000
  C   C4        1.0  0.51434  0.69548  0.65052  1.0000
  C   C5        1.0  0.64695  0.52894  0.16023  1.0000
  C   C6        1.0  0.35306  0.52894  0.33977  1.0000
  C   C7        1.0  0.35305  0.47106  0.83977  1.0000
  C   C8        1.0  0.64695  0.47107  0.66023  1.0000
  C   C9        1.0  0.75980  0.41061  0.17219  1.0000
  C   C10       1.0  0.24021  0.41061  0.32782  1.0000
  C   C11       1.0  0.24021  0.58939  0.82782  1.0000
  C   C12       1.0  0.75979  0.58939  0.67219  1.0000
  C   C13       1.0  0.33307  0.53960  0.13191  1.0000
  C   C14       1.0  0.66694  0.53960  0.36809  1.0000
  C   C15       1.0  0.66694  0.46039  0.86809  1.0000
  C   C16       1.0  0.33306  0.46040  0.63191  1.0000
  C   C17       1.0  0.30286  0.59569  0.04589  1.0000
  C   C18       1.0  0.69714  0.59569  0.45411  1.0000
  C   C19       1.0  0.69714  0.40431  0.95411  1.0000
  C   C20       1.0  0.30286  0.40431  0.54589  1.0000
  C   C21       1.0  0.13117  0.66693  0.02803  1.0000
  C   C22       1.0  0.86883  0.66693  0.47197  1.0000
  C   C23       1.0  0.86883  0.33306  0.97197  1.0000
  C   C24       1.0  0.13117  0.33307  0.52803  1.0000
  Br  Br1       1.0  0.50000  0.90291  0.25000  1.0000
  Br  Br2       1.0  0.50000  0.09709  0.75000  1.0000
  Br  Br3       1.0  0.71475  0.90062  0.04776  1.0000
  Br  Br4       1.0  0.28525  0.90062  0.45223  1.0000
  Br  Br5       1.0  0.28525  0.09938  0.95223  1.0000
  Br  Br6       1.0  0.71475  0.09938  0.54776  1.0000
  Br  Br7       1.0  0.09674  0.15358  0.15255  1.0000
  Br  Br8       1.0  0.90324  0.15357  0.34746  1.0000
  Br  Br9       1.0  0.90326  0.84642  0.84745  1.0000
  Br  Br10      1.0  0.09674  0.84642  0.65254  1.0000
  Br  Br11      1.0  0.00000  0.77665  0.25000  1.0000
  Br  Br12      1.0  0.00000  0.22335  0.75000  1.0000
  N   N1        1.0  0.67545  0.27158  0.16571  1.0000
  N   N2        1.0  0.32455  0.27159  0.33428  1.0000
  N   N3        1.0  0.32455  0.72842  0.83428  1.0000
  N   N4        1.0  0.67545  0.72841  0.66571  1.0000
  N   N5        1.0  0.49215  0.45981  0.14716  1.0000
  N   N6        1.0  0.50786  0.45981  0.35284  1.0000
  N   N7        1.0  0.50786  0.54019  0.85284  1.0000
  N   N8        1.0  0.49214  0.54020  0.64716  1.0000
  N   N9        1.0  0.11875  0.82544  0.06123  1.0000
  N   N10       1.0  0.88125  0.82544  0.43877  1.0000
  N   N11       1.0  0.88125  0.17456  0.93877  1.0000
  N   N12       1.0  0.11875  0.17456  0.56123  1.0000
