data_image0
_chemical_formula_structural       Cu4H28C28S4I4N4
_chemical_formula_sum              "Cu4 H28 C28 S4 I4 N4"
_cell_length_a       5.36932
_cell_length_b       7.82159
_cell_length_c       21.2026
_cell_angle_alpha    94.9365
_cell_angle_beta     90.0007
_cell_angle_gamma    89.999

_space_group_name_H-M_alt    "P 1"
_space_group_IT_number       1

loop_
  _space_group_symop_operation_xyz
  'x, y, z'

loop_
  _atom_site_type_symbol
  _atom_site_label
  _atom_site_symmetry_multiplicity
  _atom_site_fract_x
  _atom_site_fract_y
  _atom_site_fract_z
  _atom_site_occupancy
  Cu  Cu1       1.0  0.75714  0.98460  0.49438  1.0000
  Cu  Cu2       1.0  0.25713  0.51539  0.00562  1.0000
  Cu  Cu3       1.0  0.24285  0.01540  0.50562  1.0000
  Cu  Cu4       1.0  0.74285  0.48460  0.99438  1.0000
  H   H1        1.0  0.00980  0.84666  0.36990  1.0000
  H   H2        1.0  0.50980  0.65338  0.13011  1.0000
  H   H3        1.0  0.99019  0.15334  0.63010  1.0000
  H   H4        1.0  0.49018  0.34664  0.86989  1.0000
  H   H5        1.0  0.71970  0.74412  0.28383  1.0000
  H   H6        1.0  0.21970  0.75592  0.21617  1.0000
  H   H7        1.0  0.28031  0.25587  0.71616  1.0000
  H   H8        1.0  0.78031  0.24412  0.78383  1.0000
  H   H9        1.0  0.81019  0.47505  0.21642  1.0000
  H   H10       1.0  0.31020  0.02500  0.28358  1.0000
  H   H11       1.0  0.18984  0.52496  0.78358  1.0000
  H   H12       1.0  0.68983  0.97503  0.71642  1.0000
  H   H13       1.0  0.18776  0.30260  0.23817  1.0000
  H   H14       1.0  0.68782  0.19743  0.26183  1.0000
  H   H15       1.0  0.81224  0.69740  0.76183  1.0000
  H   H16       1.0  0.31224  0.80259  0.73817  1.0000
  H   H17       1.0  0.47103  0.40052  0.32591  1.0000
  H   H18       1.0  0.97107  0.09948  0.17410  1.0000
  H   H19       1.0  0.52896  0.59947  0.67410  1.0000
  H   H20       1.0  0.02898  0.90052  0.82590  1.0000
  H   H21       1.0  0.51204  0.45388  0.42974  1.0000
  H   H22       1.0  0.01203  0.04611  0.07026  1.0000
  H   H23       1.0  0.48795  0.54611  0.57026  1.0000
  H   H24       1.0  0.98796  0.95387  0.92973  1.0000
  H   H25       1.0  0.69310  0.61983  0.46667  1.0000
  H   H26       1.0  0.19310  0.88016  0.03333  1.0000
  H   H27       1.0  0.30687  0.38016  0.53333  1.0000
  H   H28       1.0  0.80687  0.11983  0.96667  1.0000
  C   C1        1.0  0.43403  0.69405  0.40346  1.0000
  C   C2        1.0  0.93404  0.80596  0.09654  1.0000
  C   C3        1.0  0.56597  0.30595  0.59654  1.0000
  C   C4        1.0  0.06598  0.19404  0.90346  1.0000
  C   C5        1.0  0.25846  0.63013  0.35378  1.0000
  C   C6        1.0  0.75847  0.86989  0.14623  1.0000
  C   C7        1.0  0.74154  0.36987  0.64622  1.0000
  C   C8        1.0  0.24155  0.13012  0.85377  1.0000
  C   C9        1.0  0.04675  0.72696  0.34113  1.0000
  C   C10       1.0  0.54675  0.77307  0.15887  1.0000
  C   C11       1.0  0.95324  0.27303  0.65886  1.0000
  C   C12       1.0  0.45324  0.22695  0.84113  1.0000
  C   C13       1.0  0.88426  0.66888  0.29291  1.0000
  C   C14       1.0  0.38426  0.83115  0.20709  1.0000
  C   C15       1.0  0.11573  0.33111  0.70708  1.0000
  C   C16       1.0  0.61574  0.16887  0.79291  1.0000
  C   C17       1.0  0.93366  0.51630  0.25564  1.0000
  C   C18       1.0  0.43367  0.98374  0.24436  1.0000
  C   C19       1.0  0.06634  0.48370  0.74436  1.0000
  C   C20       1.0  0.56633  0.01629  0.75564  1.0000
  C   C21       1.0  0.14473  0.41983  0.26772  1.0000
  C   C22       1.0  0.64476  0.08019  0.23228  1.0000
  C   C23       1.0  0.85525  0.58016  0.73227  1.0000
  C   C24       1.0  0.35526  0.91982  0.76773  1.0000
  C   C25       1.0  0.30453  0.47471  0.31714  1.0000
  C   C26       1.0  0.80455  0.02529  0.18286  1.0000
  C   C27       1.0  0.69546  0.52528  0.68286  1.0000
  C   C28       1.0  0.19547  0.97471  0.81714  1.0000
  S   S1        1.0  0.48606  0.90905  0.41502  1.0000
  S   S2        1.0  0.98606  0.59095  0.08498  1.0000
  S   S3        1.0  0.51393  0.09094  0.58498  1.0000
  S   S4        1.0  0.01393  0.40905  0.91502  1.0000
  I   I1        1.0  0.00762  0.75451  0.55177  1.0000
  I   I2        1.0  0.50758  0.74549  0.94824  1.0000
  I   I3        1.0  0.99237  0.24548  0.44823  1.0000
  I   I4        1.0  0.49241  0.25451  0.05177  1.0000
  N   N1        1.0  0.55275  0.58142  0.43575  1.0000
  N   N2        1.0  0.05275  0.91858  0.06425  1.0000
  N   N3        1.0  0.44725  0.41857  0.56425  1.0000
  N   N4        1.0  0.94725  0.08142  0.93574  1.0000
