data_image0
_chemical_formula_structural       Cu4H28C28S4I4N4
_chemical_formula_sum              "Cu4 H28 C28 S4 I4 N4"
_cell_length_a       5.86034
_cell_length_b       10.55
_cell_length_c       15.6003
_cell_angle_alpha    90.0008
_cell_angle_beta     90.0001
_cell_angle_gamma    98.6886

_space_group_name_H-M_alt    "P 1"
_space_group_IT_number       1

loop_
  _space_group_symop_operation_xyz
  'x, y, z'

loop_
  _atom_site_type_symbol
  _atom_site_label
  _atom_site_symmetry_multiplicity
  _atom_site_fract_x
  _atom_site_fract_y
  _atom_site_fract_z
  _atom_site_occupancy
  Cu  Cu1       1.0  0.76921  0.48664  0.50817  1.0000
  Cu  Cu2       1.0  0.73068  0.01335  0.00822  1.0000
  Cu  Cu3       1.0  0.23058  0.51319  0.49177  1.0000
  Cu  Cu4       1.0  0.26948  0.98688  0.99178  1.0000
  H   H1        1.0  0.00984  0.23944  0.48401  1.0000
  H   H2        1.0  0.49013  0.26050  0.98397  1.0000
  H   H3        1.0  0.98981  0.76034  0.51604  1.0000
  H   H4        1.0  0.50994  0.73967  0.01597  1.0000
  H   H5        1.0  0.65028  0.08558  0.49328  1.0000
  H   H6        1.0  0.84963  0.41441  0.99322  1.0000
  H   H7        1.0  0.34951  0.91412  0.50674  1.0000
  H   H8        1.0  0.15041  0.58576  0.00664  1.0000
  H   H9        1.0  0.59174  0.92600  0.61320  1.0000
  H   H10       1.0  0.90821  0.57401  0.11315  1.0000
  H   H11       1.0  0.40791  0.07399  0.38697  1.0000
  H   H12       1.0  0.09209  0.42602  0.88677  1.0000
  H   H13       1.0  0.89712  0.92617  0.72355  1.0000
  H   H14       1.0  0.60284  0.57382  0.22353  1.0000
  H   H15       1.0  0.10270  0.07366  0.27649  1.0000
  H   H16       1.0  0.39754  0.42631  0.77642  1.0000
  H   H17       1.0  0.25862  0.07456  0.71355  1.0000
  H   H18       1.0  0.24139  0.42538  0.21353  1.0000
  H   H19       1.0  0.74124  0.92522  0.28643  1.0000
  H   H20       1.0  0.75895  0.57477  0.78643  1.0000
  H   H21       1.0  0.48346  0.22923  0.71437  1.0000
  H   H22       1.0  0.01653  0.27081  0.21434  1.0000
  H   H23       1.0  0.51643  0.77069  0.28568  1.0000
  H   H24       1.0  0.98369  0.72946  0.78566  1.0000
  H   H25       1.0  0.67303  0.33749  0.65284  1.0000
  H   H26       1.0  0.82697  0.16252  0.15283  1.0000
  H   H27       1.0  0.32680  0.66235  0.34714  1.0000
  H   H28       1.0  0.17326  0.83766  0.84723  1.0000
  C   C1        1.0  0.37708  0.26034  0.59123  1.0000
  C   C2        1.0  0.12293  0.23961  0.09122  1.0000
  C   C3        1.0  0.62266  0.73954  0.40881  1.0000
  C   C4        1.0  0.87728  0.76053  0.90880  1.0000
  C   C5        1.0  0.16077  0.16996  0.59799  1.0000
  C   C6        1.0  0.33926  0.32999  0.09797  1.0000
  C   C7        1.0  0.83897  0.82991  0.40206  1.0000
  C   C8        1.0  0.66097  0.67016  0.90199  1.0000
  C   C9        1.0  0.98565  0.17033  0.53631  1.0000
  C   C10       1.0  0.51434  0.32962  0.03627  1.0000
  C   C11       1.0  0.01408  0.82948  0.46374  1.0000
  C   C12       1.0  0.48578  0.67055  0.96366  1.0000
  C   C13       1.0  0.78311  0.08326  0.54174  1.0000
  C   C14       1.0  0.71685  0.41672  0.04169  1.0000
  C   C15       1.0  0.21662  0.91656  0.45832  1.0000
  C   C16       1.0  0.28333  0.58339  0.95823  1.0000
  C   C17       1.0  0.74999  0.99479  0.60882  1.0000
  C   C18       1.0  0.74998  0.50519  0.10878  1.0000
  C   C19       1.0  0.24974  0.00509  0.39126  1.0000
  C   C20       1.0  0.25028  0.49490  0.89114  1.0000
  C   C21       1.0  0.92227  0.99376  0.67047  1.0000
  C   C22       1.0  0.57773  0.50621  0.17045  1.0000
  C   C23       1.0  0.07752  0.00607  0.32957  1.0000
  C   C24       1.0  0.42260  0.49392  0.82949  1.0000
  C   C25       1.0  0.12612  0.08008  0.66513  1.0000
  C   C26       1.0  0.37390  0.41987  0.16511  1.0000
  C   C27       1.0  0.87365  0.91975  0.33490  1.0000
  C   C28       1.0  0.62644  0.58026  0.83486  1.0000
  S   S1        1.0  0.45014  0.33726  0.49675  1.0000
  S   S2        1.0  0.04981  0.16269  0.99676  1.0000
  S   S3        1.0  0.54960  0.66257  0.50327  1.0000
  S   S4        1.0  0.95036  0.83746  0.00327  1.0000
  I   I1        1.0  0.02928  0.52688  0.64370  1.0000
  I   I2        1.0  0.47074  0.97295  0.14374  1.0000
  I   I3        1.0  0.97056  0.47294  0.35624  1.0000
  I   I4        1.0  0.52957  0.02733  0.85628  1.0000
  N   N1        1.0  0.51763  0.27846  0.65848  1.0000
  N   N2        1.0  0.98238  0.22154  0.15847  1.0000
  N   N3        1.0  0.48217  0.72144  0.34155  1.0000
  N   N4        1.0  0.01788  0.77864  0.84156  1.0000
