data_image0
_chemical_formula_structural       Tm2H14C16N2O16
_chemical_formula_sum              "Tm2 H14 C16 N2 O16"
_cell_length_a       7.44211
_cell_length_b       8.37841
_cell_length_c       9.29065
_cell_angle_alpha    78.0163
_cell_angle_beta     76.4645
_cell_angle_gamma    69.9636

_space_group_name_H-M_alt    "P 1"
_space_group_IT_number       1

loop_
  _space_group_symop_operation_xyz
  'x, y, z'

loop_
  _atom_site_type_symbol
  _atom_site_label
  _atom_site_symmetry_multiplicity
  _atom_site_fract_x
  _atom_site_fract_y
  _atom_site_fract_z
  _atom_site_occupancy
  Tm  Tm1       1.0  0.17274  0.86857  0.20497  1.0000
  Tm  Tm2       1.0  0.82726  0.13143  0.79503  1.0000
  H   H1        1.0  0.53853  0.52077  0.09803  1.0000
  H   H2        1.0  0.46147  0.47923  0.90197  1.0000
  H   H3        1.0  0.60583  0.09915  0.45791  1.0000
  H   H4        1.0  0.39418  0.90085  0.54209  1.0000
  H   H5        1.0  0.32705  0.28883  0.61702  1.0000
  H   H6        1.0  0.67295  0.71117  0.38299  1.0000
  H   H7        1.0  0.10424  0.09863  0.42566  1.0000
  H   H8        1.0  0.89576  0.90137  0.57434  1.0000
  H   H9        1.0  0.18935  0.17866  0.27394  1.0000
  H   H10       1.0  0.81064  0.82134  0.72606  1.0000
  H   H11       1.0  0.95528  0.60405  0.24943  1.0000
  H   H12       1.0  0.04472  0.39596  0.75057  1.0000
  H   H13       1.0  0.88897  0.76090  0.11718  1.0000
  H   H14       1.0  0.11101  0.23911  0.88282  1.0000
  C   C1        1.0  0.12557  0.63080  0.52605  1.0000
  C   C2        1.0  0.87443  0.36920  0.47395  1.0000
  C   C3        1.0  0.28968  0.50352  0.43977  1.0000
  C   C4        1.0  0.71032  0.49648  0.56023  1.0000
  C   C5        1.0  0.49394  0.46452  0.21166  1.0000
  C   C6        1.0  0.50606  0.53547  0.78834  1.0000
  C   C7        1.0  0.58960  0.29424  0.26403  1.0000
  C   C8        1.0  0.41040  0.70575  0.73597  1.0000
  C   C9        1.0  0.53118  0.22988  0.41245  1.0000
  C   C10       1.0  0.46883  0.77012  0.58755  1.0000
  C   C11       1.0  0.37698  0.33545  0.50135  1.0000
  C   C12       1.0  0.62302  0.66455  0.49865  1.0000
  C   C13       1.0  0.74889  0.18722  0.15930  1.0000
  C   C14       1.0  0.25112  0.81278  0.84070  1.0000
  C   C15       1.0  0.57457  0.92150  0.03662  1.0000
  C   C16       1.0  0.42544  0.07851  0.96338  1.0000
  N   N1        1.0  0.34891  0.56703  0.29729  1.0000
  N   N2        1.0  0.65109  0.43297  0.70271  1.0000
  O   O1        1.0  0.04519  0.58630  0.65557  1.0000
  O   O2        1.0  0.95482  0.41370  0.34443  1.0000
  O   O3        1.0  0.07716  0.78560  0.45653  1.0000
  O   O4        1.0  0.92283  0.21440  0.54348  1.0000
  O   O5        1.0  0.73822  0.22613  0.02145  1.0000
  O   O6        1.0  0.26178  0.77387  0.97855  1.0000
  O   O7        1.0  0.88032  0.06527  0.21507  1.0000
  O   O8        1.0  0.11969  0.93473  0.78492  1.0000
  O   O9        1.0  0.50868  0.82988  0.14783  1.0000
  O   O10       1.0  0.49133  0.17013  0.85217  1.0000
  O   O11       1.0  0.75276  0.89797  0.97819  1.0000
  O   O12       1.0  0.24725  0.10202  0.02181  1.0000
  O   O13       1.0  0.20665  0.06618  0.33553  1.0000
  O   O14       1.0  0.79335  0.93382  0.66447  1.0000
  O   O15       1.0  0.96334  0.71974  0.20029  1.0000
  O   O16       1.0  0.03665  0.28026  0.79971  1.0000
