data_image0
_chemical_formula_structural       Cu4H28C28S4Br4N4
_chemical_formula_sum              "Cu4 H28 C28 S4 Br4 N4"
_cell_length_a       5.45117
_cell_length_b       11.6422
_cell_length_c       17.6547
_cell_angle_alpha    90.0025
_cell_angle_beta     90.0018
_cell_angle_gamma    91.1993

_space_group_name_H-M_alt    "P 1"
_space_group_IT_number       1

loop_
  _space_group_symop_operation_xyz
  'x, y, z'

loop_
  _atom_site_type_symbol
  _atom_site_label
  _atom_site_symmetry_multiplicity
  _atom_site_fract_x
  _atom_site_fract_y
  _atom_site_fract_z
  _atom_site_occupancy
  Cu  Cu1       1.0  0.24997  0.50986  0.49473  1.0000
  Cu  Cu2       1.0  0.25004  0.99016  0.99472  1.0000
  Cu  Cu3       1.0  0.74999  0.49019  0.50528  1.0000
  Cu  Cu4       1.0  0.74998  0.00982  0.00527  1.0000
  H   H1        1.0  0.95653  0.74870  0.44833  1.0000
  H   H2        1.0  0.54350  0.75130  0.94833  1.0000
  H   H3        1.0  0.04344  0.25133  0.55167  1.0000
  H   H4        1.0  0.45649  0.24872  0.05167  1.0000
  H   H5        1.0  0.29285  0.87342  0.39808  1.0000
  H   H6        1.0  0.20715  0.62658  0.89809  1.0000
  H   H7        1.0  0.70712  0.12660  0.60191  1.0000
  H   H8        1.0  0.79288  0.37343  0.10191  1.0000
  H   H9        1.0  0.31937  0.91334  0.25872  1.0000
  H   H10       1.0  0.18060  0.58666  0.75873  1.0000
  H   H11       1.0  0.68062  0.08663  0.74127  1.0000
  H   H12       1.0  0.81939  0.41333  0.24128  1.0000
  H   H13       1.0  0.99809  0.83449  0.17250  1.0000
  H   H14       1.0  0.50186  0.66551  0.67250  1.0000
  H   H15       1.0  0.00194  0.16547  0.82749  1.0000
  H   H16       1.0  0.49817  0.33448  0.32751  1.0000
  H   H17       1.0  0.65251  0.71965  0.22247  1.0000
  H   H18       1.0  0.84748  0.78035  0.72246  1.0000
  H   H19       1.0  0.34749  0.28032  0.77752  1.0000
  H   H20       1.0  0.15257  0.21964  0.27754  1.0000
  H   H21       1.0  0.50028  0.57569  0.26808  1.0000
  H   H22       1.0  0.99976  0.92428  0.76807  1.0000
  H   H23       1.0  0.49972  0.42429  0.73194  1.0000
  H   H24       1.0  0.00023  0.07571  0.23193  1.0000
  H   H25       1.0  0.30740  0.53548  0.34342  1.0000
  H   H26       1.0  0.19262  0.96449  0.84342  1.0000
  H   H27       1.0  0.69257  0.46452  0.65660  1.0000
  H   H28       1.0  0.80738  0.03549  0.15658  1.0000
  C   C1        1.0  0.58313  0.65040  0.37022  1.0000
  C   C2        1.0  0.91686  0.84960  0.87021  1.0000
  C   C3        1.0  0.41684  0.34961  0.62979  1.0000
  C   C4        1.0  0.08313  0.15041  0.12979  1.0000
  C   C5        1.0  0.78222  0.72375  0.33955  1.0000
  C   C6        1.0  0.71776  0.77625  0.83955  1.0000
  C   C7        1.0  0.21774  0.27626  0.66045  1.0000
  C   C8        1.0  0.28226  0.22376  0.16045  1.0000
  C   C9        1.0  0.96342  0.76995  0.38821  1.0000
  C   C10       1.0  0.53659  0.73005  0.88821  1.0000
  C   C11       1.0  0.03656  0.23006  0.61179  1.0000
  C   C12       1.0  0.46344  0.26996  0.11179  1.0000
  C   C13       1.0  0.15262  0.83942  0.35965  1.0000
  C   C14       1.0  0.34737  0.66058  0.85966  1.0000
  C   C15       1.0  0.84735  0.16059  0.64034  1.0000
  C   C16       1.0  0.65267  0.33943  0.14034  1.0000
  C   C17       1.0  0.16759  0.86182  0.28198  1.0000
  C   C18       1.0  0.33238  0.63819  0.78198  1.0000
  C   C19       1.0  0.83241  0.13816  0.71802  1.0000
  C   C20       1.0  0.66762  0.36181  0.21802  1.0000
  C   C21       1.0  0.98860  0.81633  0.23303  1.0000
  C   C22       1.0  0.51138  0.68368  0.73304  1.0000
  C   C23       1.0  0.01138  0.18365  0.76696  1.0000
  C   C24       1.0  0.48865  0.31632  0.26697  1.0000
  C   C25       1.0  0.79598  0.74882  0.26154  1.0000
  C   C26       1.0  0.70403  0.75118  0.76153  1.0000
  C   C27       1.0  0.20402  0.25115  0.73846  1.0000
  C   C28       1.0  0.29602  0.24882  0.23846  1.0000
  S   S1        1.0  0.52087  0.65117  0.46491  1.0000
  S   S2        1.0  0.97914  0.84884  0.96490  1.0000
  S   S3        1.0  0.47908  0.34888  0.53510  1.0000
  S   S4        1.0  0.02087  0.15115  0.03510  1.0000
  Br  Br1       1.0  0.00804  0.58500  0.60344  1.0000
  Br  Br2       1.0  0.49198  0.91499  0.10343  1.0000
  Br  Br3       1.0  0.99194  0.41503  0.39657  1.0000
  Br  Br4       1.0  0.50806  0.08499  0.89656  1.0000
  N   N1        1.0  0.45108  0.58521  0.32312  1.0000
  N   N2        1.0  0.04893  0.91476  0.82311  1.0000
  N   N3        1.0  0.54889  0.41478  0.67689  1.0000
  N   N4        1.0  0.95108  0.08522  0.17689  1.0000
