data_image0
_chemical_formula_structural       Cu4H28C28S4Br4N4
_chemical_formula_sum              "Cu4 H28 C28 S4 Br4 N4"
_cell_length_a       5.55536
_cell_length_b       13.8381
_cell_length_c       15.2567
_cell_angle_alpha    90.0039
_cell_angle_beta     93.3217
_cell_angle_gamma    89.9997

_space_group_name_H-M_alt    "P 1"
_space_group_IT_number       1

loop_
  _space_group_symop_operation_xyz
  'x, y, z'

loop_
  _atom_site_type_symbol
  _atom_site_label
  _atom_site_symmetry_multiplicity
  _atom_site_fract_x
  _atom_site_fract_y
  _atom_site_fract_z
  _atom_site_occupancy
  Cu  Cu1       1.0  0.74035  0.50823  0.50782  1.0000
  Cu  Cu2       1.0  0.75966  0.00820  0.99217  1.0000
  Cu  Cu3       1.0  0.25965  0.49179  0.49216  1.0000
  Cu  Cu4       1.0  0.24031  0.99176  0.00783  1.0000
  H   H1        1.0  0.04215  0.67784  0.60737  1.0000
  H   H2        1.0  0.45783  0.17783  0.89264  1.0000
  H   H3        1.0  0.95784  0.32219  0.39262  1.0000
  H   H4        1.0  0.54215  0.82217  0.10738  1.0000
  H   H5        1.0  0.74795  0.76753  0.69387  1.0000
  H   H6        1.0  0.75204  0.26752  0.80615  1.0000
  H   H7        1.0  0.25208  0.23249  0.30613  1.0000
  H   H8        1.0  0.24795  0.73248  0.19388  1.0000
  H   H9        1.0  0.81509  0.78190  0.85634  1.0000
  H   H10       1.0  0.68491  0.28189  0.64369  1.0000
  H   H11       1.0  0.18493  0.21811  0.14366  1.0000
  H   H12       1.0  0.31509  0.71812  0.35635  1.0000
  H   H13       1.0  0.18038  0.70879  0.93163  1.0000
  H   H14       1.0  0.31962  0.20878  0.56838  1.0000
  H   H15       1.0  0.81963  0.29119  0.06836  1.0000
  H   H16       1.0  0.68041  0.79123  0.43164  1.0000
  H   H17       1.0  0.47615  0.62125  0.84556  1.0000
  H   H18       1.0  0.02386  0.12123  0.65444  1.0000
  H   H19       1.0  0.52384  0.37874  0.15443  1.0000
  H   H20       1.0  0.97615  0.87877  0.34556  1.0000
  H   H21       1.0  0.51832  0.49025  0.76864  1.0000
  H   H22       1.0  0.98166  0.99022  0.73135  1.0000
  H   H23       1.0  0.48165  0.50975  0.23134  1.0000
  H   H24       1.0  0.01834  0.00977  0.26865  1.0000
  H   H25       1.0  0.69843  0.47917  0.67794  1.0000
  H   H26       1.0  0.80156  0.97915  0.82205  1.0000
  H   H27       1.0  0.30159  0.52082  0.32204  1.0000
  H   H28       1.0  0.19845  0.02084  0.17795  1.0000
  C   C1        1.0  0.44734  0.58775  0.67028  1.0000
  C   C2        1.0  0.05267  0.08774  0.82972  1.0000
  C   C3        1.0  0.55265  0.41226  0.32971  1.0000
  C   C4        1.0  0.94731  0.91225  0.17029  1.0000
  C   C5        1.0  0.27566  0.64224  0.72073  1.0000
  C   C6        1.0  0.22432  0.14223  0.77928  1.0000
  C   C7        1.0  0.72433  0.35776  0.27927  1.0000
  C   C8        1.0  0.77567  0.85777  0.22073  1.0000
  C   C9        1.0  0.07243  0.68608  0.67824  1.0000
  C   C10       1.0  0.42752  0.18606  0.82178  1.0000
  C   C11       1.0  0.92758  0.31394  0.32175  1.0000
  C   C12       1.0  0.57245  0.81394  0.17824  1.0000
  C   C13       1.0  0.90826  0.73578  0.72714  1.0000
  C   C14       1.0  0.59173  0.23577  0.77289  1.0000
  C   C15       1.0  0.09177  0.26423  0.27287  1.0000
  C   C16       1.0  0.40827  0.76423  0.22713  1.0000
  C   C17       1.0  0.94432  0.74273  0.81843  1.0000
  C   C18       1.0  0.55565  0.24271  0.68159  1.0000
  C   C19       1.0  0.05571  0.25728  0.18156  1.0000
  C   C20       1.0  0.44435  0.75729  0.31843  1.0000
  C   C21       1.0  0.14757  0.70037  0.86089  1.0000
  C   C22       1.0  0.35237  0.20035  0.63912  1.0000
  C   C23       1.0  0.85243  0.29963  0.13909  1.0000
  C   C24       1.0  0.64763  0.79965  0.36089  1.0000
  C   C25       1.0  0.31220  0.65032  0.81257  1.0000
  C   C26       1.0  0.18778  0.15029  0.68744  1.0000
  C   C27       1.0  0.68780  0.34968  0.18742  1.0000
  C   C28       1.0  0.81223  0.84971  0.31257  1.0000
  S   S1        1.0  0.49079  0.61767  0.56398  1.0000
  S   S2        1.0  0.00919  0.11765  0.93602  1.0000
  S   S3        1.0  0.50922  0.38235  0.43600  1.0000
  S   S4        1.0  0.99076  0.88233  0.06398  1.0000
  Br  Br1       1.0  0.97983  0.58923  0.39603  1.0000
  Br  Br2       1.0  0.52022  0.08922  0.10396  1.0000
  Br  Br3       1.0  0.02021  0.41076  0.60395  1.0000
  Br  Br4       1.0  0.47982  0.91077  0.89603  1.0000
  N   N1        1.0  0.56751  0.51542  0.70985  1.0000
  N   N2        1.0  0.93248  0.01540  0.79014  1.0000
  N   N3        1.0  0.43249  0.48458  0.29014  1.0000
  N   N4        1.0  0.06751  0.98459  0.20985  1.0000
