data_image0
_chemical_formula_structural       Cu2H16C16S4I2N4
_chemical_formula_sum              "Cu2 H16 C16 S4 I2 N4"
_cell_length_a       7.19474
_cell_length_b       10.4703
_cell_length_c       10.908
_cell_angle_alpha    96.9563
_cell_angle_beta     92.8926
_cell_angle_gamma    105.082

_space_group_name_H-M_alt    "P 1"
_space_group_IT_number       1

loop_
  _space_group_symop_operation_xyz
  'x, y, z'

loop_
  _atom_site_type_symbol
  _atom_site_label
  _atom_site_symmetry_multiplicity
  _atom_site_fract_x
  _atom_site_fract_y
  _atom_site_fract_z
  _atom_site_occupancy
  Cu  Cu1       1.0  0.51002  0.39317  0.59693  1.0000
  Cu  Cu2       1.0  0.48997  0.60682  0.40306  1.0000
  H   H1        1.0  0.84029  0.51508  0.79713  1.0000
  H   H2        1.0  0.15971  0.48492  0.20288  1.0000
  H   H3        1.0  0.32984  0.46815  0.01631  1.0000
  H   H4        1.0  0.67017  0.53186  0.98370  1.0000
  H   H5        1.0  0.05520  0.21536  0.63696  1.0000
  H   H6        1.0  0.94480  0.78463  0.36304  1.0000
  H   H7        1.0  0.70124  0.90637  0.35837  1.0000
  H   H8        1.0  0.29878  0.09363  0.64164  1.0000
  H   H9        1.0  0.05984  0.58858  0.68464  1.0000
  H   H10       1.0  0.94015  0.41142  0.31536  1.0000
  H   H11       1.0  0.22490  0.52253  0.60351  1.0000
  H   H12       1.0  0.77508  0.47746  0.39650  1.0000
  H   H13       1.0  0.59040  0.05478  0.32347  1.0000
  H   H14       1.0  0.40960  0.94522  0.67652  1.0000
  H   H15       1.0  0.49005  0.18015  0.38908  1.0000
  H   H16       1.0  0.50994  0.81984  0.61093  1.0000
  C   C1        1.0  0.20517  0.47943  0.78023  1.0000
  C   C2        1.0  0.79482  0.52058  0.21977  1.0000
  C   C3        1.0  0.10037  0.49129  0.89244  1.0000
  C   C4        1.0  0.89965  0.50872  0.10758  1.0000
  C   C5        1.0  0.91364  0.51009  0.88568  1.0000
  C   C6        1.0  0.08637  0.48991  0.11434  1.0000
  C   C7        1.0  0.18459  0.48116  0.00865  1.0000
  C   C8        1.0  0.81541  0.51884  0.99136  1.0000
  C   C9        1.0  0.71921  0.15345  0.49302  1.0000
  C   C10       1.0  0.28084  0.84657  0.50696  1.0000
  C   C11       1.0  0.86019  0.07316  0.49691  1.0000
  C   C12       1.0  0.13978  0.92683  0.50310  1.0000
  C   C13       1.0  0.02909  0.11992  0.57793  1.0000
  C   C14       1.0  0.97093  0.88009  0.42206  1.0000
  C   C15       1.0  0.83363  0.95147  0.41881  1.0000
  C   C16       1.0  0.16638  0.04854  0.58118  1.0000
  S   S1        1.0  0.36801  0.38877  0.77593  1.0000
  S   S2        1.0  0.63201  0.61123  0.22408  1.0000
  S   S3        1.0  0.72653  0.27538  0.61088  1.0000
  S   S4        1.0  0.27347  0.72462  0.38911  1.0000
  I   I1        1.0  0.27777  0.34701  0.39033  1.0000
  I   I2        1.0  0.72223  0.65299  0.60966  1.0000
  N   N1        1.0  0.16449  0.53867  0.68482  1.0000
  N   N2        1.0  0.83550  0.46133  0.31518  1.0000
  N   N3        1.0  0.58909  0.12581  0.39514  1.0000
  N   N4        1.0  0.41087  0.87419  0.60485  1.0000
