data_image0
_chemical_formula_structural       Cu2H60C32S4Br2
_chemical_formula_sum              "Cu2 H60 C32 S4 Br2"
_cell_length_a       8.38458
_cell_length_b       10.2304
_cell_length_c       10.6747
_cell_angle_alpha    75.5349
_cell_angle_beta     77.3305
_cell_angle_gamma    87.3885

_space_group_name_H-M_alt    "P 1"
_space_group_IT_number       1

loop_
  _space_group_symop_operation_xyz
  'x, y, z'

loop_
  _atom_site_type_symbol
  _atom_site_label
  _atom_site_symmetry_multiplicity
  _atom_site_fract_x
  _atom_site_fract_y
  _atom_site_fract_z
  _atom_site_occupancy
  Cu  Cu1       1.0  0.04359  0.16135  0.46690  1.0000
  Cu  Cu2       1.0  0.95641  0.83865  0.53310  1.0000
  H   H1        1.0  0.92596  0.51333  0.17545  1.0000
  H   H2        1.0  0.07404  0.48667  0.82455  1.0000
  H   H3        1.0  0.16744  0.46870  0.35970  1.0000
  H   H4        1.0  0.83256  0.53130  0.64030  1.0000
  H   H5        1.0  0.99115  0.57018  0.37225  1.0000
  H   H6        1.0  0.00885  0.42983  0.62775  1.0000
  H   H7        1.0  0.23708  0.71428  0.25998  1.0000
  H   H8        1.0  0.76292  0.28573  0.74002  1.0000
  H   H9        1.0  0.10594  0.72235  0.15033  1.0000
  H   H10       1.0  0.89406  0.27765  0.84967  1.0000
  H   H11       1.0  0.39300  0.69359  0.03603  1.0000
  H   H12       1.0  0.60700  0.30641  0.96396  1.0000
  H   H13       1.0  0.40948  0.54519  0.15941  1.0000
  H   H14       1.0  0.59052  0.45481  0.84059  1.0000
  H   H15       1.0  0.35096  0.48448  0.96224  1.0000
  H   H16       1.0  0.64903  0.51552  0.03775  1.0000
  H   H17       1.0  0.17760  0.58913  0.96706  1.0000
  H   H18       1.0  0.82240  0.41087  0.03294  1.0000
  H   H19       1.0  0.22510  0.33020  0.17542  1.0000
  H   H20       1.0  0.77490  0.66980  0.82458  1.0000
  H   H21       1.0  0.09031  0.35073  0.06693  1.0000
  H   H22       1.0  0.90969  0.64927  0.93307  1.0000
  H   H23       1.0  0.70064  0.29109  0.52271  1.0000
  H   H24       1.0  0.29936  0.70891  0.47729  1.0000
  H   H25       1.0  0.77532  0.45836  0.45322  1.0000
  H   H26       1.0  0.22468  0.54164  0.54679  1.0000
  H   H27       1.0  0.62912  0.47679  0.26533  1.0000
  H   H28       1.0  0.37088  0.52321  0.73467  1.0000
  H   H29       1.0  0.49529  0.45545  0.42126  1.0000
  H   H30       1.0  0.50471  0.54455  0.57874  1.0000
  H   H31       1.0  0.42094  0.31432  0.27734  1.0000
  H   H32       1.0  0.57905  0.68568  0.72267  1.0000
  H   H33       1.0  0.60792  0.23011  0.28026  1.0000
  H   H34       1.0  0.39207  0.76989  0.71974  1.0000
  H   H35       1.0  0.51387  0.15716  0.53681  1.0000
  H   H36       1.0  0.48613  0.84284  0.46320  1.0000
  H   H37       1.0  0.40744  0.08364  0.44309  1.0000
  H   H38       1.0  0.59256  0.91635  0.55691  1.0000
  H   H39       1.0  0.08589  0.16965  0.75610  1.0000
  H   H40       1.0  0.91411  0.83034  0.24390  1.0000
  H   H41       1.0  0.29937  0.32066  0.77543  1.0000
  H   H42       1.0  0.70062  0.67934  0.22456  1.0000
  H   H43       1.0  0.45249  0.20065  0.74439  1.0000
  H   H44       1.0  0.54751  0.79935  0.25560  1.0000
  H   H45       1.0  0.36918  0.18004  0.98609  1.0000
  H   H46       1.0  0.63082  0.81996  0.01391  1.0000
  H   H47       1.0  0.16235  0.16172  0.98316  1.0000
  H   H48       1.0  0.83765  0.83828  0.01684  1.0000
  H   H49       1.0  0.27743  0.93880  0.06480  1.0000
  H   H50       1.0  0.72257  0.06120  0.93520  1.0000
  H   H51       1.0  0.43681  0.96424  0.92121  1.0000
  H   H52       1.0  0.56319  0.03576  0.07880  1.0000
  H   H53       1.0  0.07133  0.94379  0.92492  1.0000
  H   H54       1.0  0.92868  0.05621  0.07508  1.0000
  H   H55       1.0  0.21944  0.82050  0.89686  1.0000
  H   H56       1.0  0.78056  0.17950  0.10314  1.0000
  H   H57       1.0  0.36918  0.98165  0.69414  1.0000
  H   H58       1.0  0.63082  0.01835  0.30586  1.0000
  H   H59       1.0  0.16380  0.96045  0.68335  1.0000
  H   H60       1.0  0.83619  0.03954  0.31665  1.0000
  C   C1        1.0  0.01552  0.45151  0.22606  1.0000
  C   C2        1.0  0.98448  0.54849  0.77394  1.0000
  C   C3        1.0  0.08797  0.53424  0.30134  1.0000
  C   C4        1.0  0.91203  0.46576  0.69866  1.0000
  C   C5        1.0  0.18734  0.65424  0.20482  1.0000
  C   C6        1.0  0.81265  0.34576  0.79518  1.0000
  C   C7        1.0  0.32301  0.60684  0.10547  1.0000
  C   C8        1.0  0.67699  0.39316  0.89453  1.0000
  C   C9        1.0  0.25248  0.52312  0.02970  1.0000
  C   C10       1.0  0.74752  0.47688  0.97030  1.0000
  C   C11       1.0  0.14750  0.40471  0.12309  1.0000
  C   C12       1.0  0.85249  0.59529  0.87692  1.0000
  C   C13       1.0  0.73236  0.36944  0.42948  1.0000
  C   C14       1.0  0.26764  0.63056  0.57052  1.0000
  C   C15       1.0  0.58842  0.40372  0.36116  1.0000
  C   C16       1.0  0.41158  0.59628  0.63884  1.0000
  C   C17       1.0  0.51229  0.28131  0.33838  1.0000
  C   C18       1.0  0.48771  0.71869  0.66163  1.0000
  C   C19       1.0  0.43421  0.17854  0.46500  1.0000
  C   C20       1.0  0.56579  0.82145  0.53500  1.0000
  C   C21       1.0  0.21595  0.15178  0.71730  1.0000
  C   C22       1.0  0.78404  0.84822  0.28270  1.0000
  C   C23       1.0  0.32229  0.21196  0.78869  1.0000
  C   C24       1.0  0.67771  0.78804  0.21131  1.0000
  C   C25       1.0  0.28809  0.13969  0.93627  1.0000
  C   C26       1.0  0.71191  0.86031  0.06373  1.0000
  C   C27       1.0  0.30769  0.98681  0.95811  1.0000
  C   C28       1.0  0.69231  0.01319  0.04189  1.0000
  C   C29       1.0  0.20186  0.92990  0.88404  1.0000
  C   C30       1.0  0.79814  0.07009  0.11596  1.0000
  C   C31       1.0  0.24068  0.00034  0.73647  1.0000
  C   C32       1.0  0.75932  0.99966  0.26353  1.0000
  S   S1        1.0  0.90368  0.29907  0.33045  1.0000
  S   S2        1.0  0.09632  0.70093  0.66955  1.0000
  S   S3        1.0  0.24026  0.24181  0.54276  1.0000
  S   S4        1.0  0.75974  0.75819  0.45723  1.0000
  Br  Br1       1.0  0.82677  0.02461  0.64577  1.0000
  Br  Br2       1.0  0.17323  0.97538  0.35422  1.0000
