data_image0
_chemical_formula_structural       Cu2H60C32S4I2
_chemical_formula_sum              "Cu2 H60 C32 S4 I2"
_cell_length_a       8.35419
_cell_length_b       10.257
_cell_length_c       10.9741
_cell_angle_alpha    74.9099
_cell_angle_beta     77.2234
_cell_angle_gamma    87.0467

_space_group_name_H-M_alt    "P 1"
_space_group_IT_number       1

loop_
  _space_group_symop_operation_xyz
  'x, y, z'

loop_
  _atom_site_type_symbol
  _atom_site_label
  _atom_site_symmetry_multiplicity
  _atom_site_fract_x
  _atom_site_fract_y
  _atom_site_fract_z
  _atom_site_occupancy
  Cu  Cu1       1.0  0.54252  0.15913  0.97253  1.0000
  Cu  Cu2       1.0  0.45748  0.84088  0.02747  1.0000
  H   H1        1.0  0.42409  0.51047  0.68132  1.0000
  H   H2        1.0  0.57591  0.48953  0.31868  1.0000
  H   H3        1.0  0.72247  0.32407  0.67816  1.0000
  H   H4        1.0  0.27752  0.67593  0.32183  1.0000
  H   H5        1.0  0.58055  0.34237  0.57817  1.0000
  H   H6        1.0  0.41945  0.65763  0.42182  1.0000
  H   H7        1.0  0.83923  0.47517  0.46389  1.0000
  H   H8        1.0  0.16077  0.52483  0.53611  1.0000
  H   H9        1.0  0.66614  0.58120  0.47354  1.0000
  H   H10       1.0  0.33386  0.41881  0.52646  1.0000
  H   H11       1.0  0.89308  0.68432  0.52922  1.0000
  H   H12       1.0  0.10692  0.31568  0.47078  1.0000
  H   H13       1.0  0.91258  0.53596  0.65005  1.0000
  H   H14       1.0  0.08742  0.46404  0.34995  1.0000
  H   H15       1.0  0.61059  0.71855  0.64881  1.0000
  H   H16       1.0  0.38941  0.28145  0.35119  1.0000
  H   H17       1.0  0.75017  0.70755  0.74983  1.0000
  H   H18       1.0  0.24983  0.29245  0.25017  1.0000
  H   H19       1.0  0.50095  0.56860  0.86785  1.0000
  H   H20       1.0  0.49906  0.43139  0.13215  1.0000
  H   H21       1.0  0.67543  0.46435  0.85345  1.0000
  H   H22       1.0  0.32457  0.53565  0.14654  1.0000
  H   H23       1.0  0.19835  0.30277  0.02379  1.0000
  H   H24       1.0  0.80165  0.69723  0.97621  1.0000
  H   H25       1.0  0.27590  0.46777  0.94582  1.0000
  H   H26       1.0  0.72410  0.53223  0.05418  1.0000
  H   H27       1.0  0.99215  0.46145  0.91808  1.0000
  H   H28       1.0  0.00785  0.53855  0.08192  1.0000
  H   H29       1.0  0.12662  0.47801  0.76684  1.0000
  H   H30       1.0  0.87338  0.52199  0.23316  1.0000
  H   H31       1.0  0.91891  0.31183  0.78598  1.0000
  H   H32       1.0  0.08109  0.68817  0.21402  1.0000
  H   H33       1.0  0.10781  0.22976  0.79158  1.0000
  H   H34       1.0  0.89219  0.77023  0.20842  1.0000
  H   H35       1.0  0.01583  0.16397  0.04147  1.0000
  H   H36       1.0  0.98417  0.83603  0.95853  1.0000
  H   H37       1.0  0.91208  0.08475  0.95412  1.0000
  H   H38       1.0  0.08792  0.91525  0.04588  1.0000
  H   H39       1.0  0.58421  0.16565  0.25507  1.0000
  H   H40       1.0  0.41579  0.83435  0.74493  1.0000
  H   H41       1.0  0.87726  0.98501  0.19489  1.0000
  H   H42       1.0  0.12274  0.01499  0.80511  1.0000
  H   H43       1.0  0.67278  0.95897  0.18327  1.0000
  H   H44       1.0  0.32722  0.04103  0.81673  1.0000
  H   H45       1.0  0.72941  0.81966  0.39228  1.0000
  H   H46       1.0  0.27059  0.18034  0.60772  1.0000
  H   H47       1.0  0.57655  0.94047  0.41911  1.0000
  H   H48       1.0  0.42345  0.05953  0.58089  1.0000
  H   H49       1.0  0.78273  0.93791  0.55546  1.0000
  H   H50       1.0  0.21726  0.06209  0.44455  1.0000
  H   H51       1.0  0.94244  0.96763  0.41495  1.0000
  H   H52       1.0  0.05756  0.03237  0.58506  1.0000
  H   H53       1.0  0.86677  0.18145  0.47869  1.0000
  H   H54       1.0  0.13323  0.81855  0.52131  1.0000
  H   H55       1.0  0.65981  0.15916  0.47668  1.0000
  H   H56       1.0  0.34019  0.84084  0.52332  1.0000
  H   H57       1.0  0.79137  0.32156  0.27366  1.0000
  H   H58       1.0  0.20863  0.67844  0.72634  1.0000
  H   H59       1.0  0.95043  0.20581  0.24287  1.0000
  H   H60       1.0  0.04957  0.79419  0.75713  1.0000
  C   C1        1.0  0.51497  0.44786  0.72952  1.0000
  C   C2        1.0  0.48502  0.55214  0.27048  1.0000
  C   C3        1.0  0.64218  0.39788  0.62829  1.0000
  C   C4        1.0  0.35782  0.60212  0.37171  1.0000
  C   C5        1.0  0.74492  0.51504  0.53179  1.0000
  C   C6        1.0  0.25508  0.48497  0.46821  1.0000
  C   C7        1.0  0.82353  0.59873  0.60014  1.0000
  C   C8        1.0  0.17647  0.40127  0.39986  1.0000
  C   C9        1.0  0.69386  0.64868  0.69939  1.0000
  C   C10       1.0  0.30614  0.35132  0.30061  1.0000
  C   C11       1.0  0.59437  0.53068  0.79780  1.0000
  C   C12       1.0  0.40563  0.46932  0.20220  1.0000
  C   C13       1.0  0.23085  0.37649  0.92934  1.0000
  C   C14       1.0  0.76916  0.62351  0.07066  1.0000
  C   C15       1.0  0.08610  0.40753  0.86243  1.0000
  C   C16       1.0  0.91391  0.59246  0.13757  1.0000
  C   C17       1.0  0.01101  0.28230  0.84582  1.0000
  C   C18       1.0  0.98899  0.71769  0.15418  1.0000
  C   C19       1.0  0.93512  0.18170  0.97212  1.0000
  C   C20       1.0  0.06488  0.81830  0.02787  1.0000
  C   C21       1.0  0.71577  0.15112  0.21700  1.0000
  C   C22       1.0  0.28423  0.84888  0.78300  1.0000
  C   C23       1.0  0.74696  0.00042  0.23547  1.0000
  C   C24       1.0  0.25303  0.99958  0.76453  1.0000
  C   C25       1.0  0.70835  0.92876  0.37947  1.0000
  C   C26       1.0  0.29165  0.07124  0.62053  1.0000
  C   C27       1.0  0.81193  0.98729  0.45145  1.0000
  C   C28       1.0  0.18807  0.01271  0.54855  1.0000
  C   C29       1.0  0.78694  0.13979  0.43048  1.0000
  C   C30       1.0  0.21306  0.86021  0.56952  1.0000
  C   C31       1.0  0.81909  0.21356  0.28650  1.0000
  C   C32       1.0  0.18091  0.78644  0.71350  1.0000
  S   S1        1.0  0.40060  0.29898  0.83786  1.0000
  S   S2        1.0  0.59940  0.70102  0.16214  1.0000
  S   S3        1.0  0.73839  0.24223  0.04671  1.0000
  S   S4        1.0  0.26161  0.75777  0.95329  1.0000
  I   I1        1.0  0.31299  0.01908  0.16157  1.0000
  I   I2        1.0  0.68701  0.98092  0.83843  1.0000
