data_image0
_chemical_formula_structural       CuH24C30N4O6
_chemical_formula_sum              "Cu1 H24 C30 N4 O6"
_cell_length_a       7.84501
_cell_length_b       8.42181
_cell_length_c       10.1969
_cell_angle_alpha    83.3122
_cell_angle_beta     82.4704
_cell_angle_gamma    79.6127

_space_group_name_H-M_alt    "P 1"
_space_group_IT_number       1

loop_
  _space_group_symop_operation_xyz
  'x, y, z'

loop_
  _atom_site_type_symbol
  _atom_site_label
  _atom_site_symmetry_multiplicity
  _atom_site_fract_x
  _atom_site_fract_y
  _atom_site_fract_z
  _atom_site_occupancy
  Cu  Cu1       1.0  0.50000  0.50000  1.00000  1.0000
  H   H1        1.0  0.00229  0.47605  0.15319  1.0000
  H   H2        1.0  0.99770  0.52395  0.84681  1.0000
  H   H3        1.0  0.23927  0.51926  0.28144  1.0000
  H   H4        1.0  0.76072  0.48073  0.71856  1.0000
  H   H5        1.0  0.86291  0.82673  0.52676  1.0000
  H   H6        1.0  0.13708  0.17325  0.47324  1.0000
  H   H7        1.0  0.62540  0.78054  0.39899  1.0000
  H   H8        1.0  0.37459  0.21946  0.60101  1.0000
  H   H9        1.0  0.33443  0.62516  0.45755  1.0000
  H   H10       1.0  0.66557  0.37483  0.54245  1.0000
  H   H11       1.0  0.60935  0.29631  0.27596  1.0000
  H   H12       1.0  0.39066  0.70369  0.72403  1.0000
  H   H13       1.0  0.44828  0.03542  0.37867  1.0000
  H   H14       1.0  0.55173  0.96459  0.62134  1.0000
  H   H15       1.0  0.22759  0.25225  0.03148  1.0000
  H   H16       1.0  0.77242  0.74775  0.96851  1.0000
  H   H17       1.0  0.27214  0.87059  0.24458  1.0000
  H   H18       1.0  0.72786  0.12942  0.75543  1.0000
  H   H19       1.0  0.09703  0.01220  0.31858  1.0000
  H   H20       1.0  0.90298  0.98780  0.68142  1.0000
  H   H21       1.0  0.28886  0.82325  0.01127  1.0000
  H   H22       1.0  0.71115  0.17676  0.98874  1.0000
  H   H23       1.0  0.87006  0.16401  0.18697  1.0000
  H   H24       1.0  0.12994  0.83599  0.81304  1.0000
  C   C1        1.0  0.65479  0.60304  0.19404  1.0000
  C   C2        1.0  0.34521  0.39696  0.80595  1.0000
  C   C3        1.0  0.80016  0.62579  0.26943  1.0000
  C   C4        1.0  0.19984  0.37421  0.73057  1.0000
  C   C5        1.0  0.97287  0.55134  0.23581  1.0000
  C   C6        1.0  0.02713  0.44867  0.76418  1.0000
  C   C7        1.0  0.10405  0.57436  0.30783  1.0000
  C   C8        1.0  0.89594  0.42563  0.69217  1.0000
  C   C9        1.0  0.06399  0.67381  0.41275  1.0000
  C   C10       1.0  0.93600  0.32618  0.58725  1.0000
  C   C11       1.0  0.89143  0.74974  0.44536  1.0000
  C   C12       1.0  0.10857  0.25026  0.55464  1.0000
  C   C13       1.0  0.76064  0.72485  0.37477  1.0000
  C   C14       1.0  0.23935  0.27514  0.62523  1.0000
  C   C15       1.0  0.20527  0.70006  0.48498  1.0000
  C   C16       1.0  0.79472  0.29992  0.51502  1.0000
  C   C17       1.0  0.50535  0.25120  0.23997  1.0000
  C   C18       1.0  0.49466  0.74880  0.76002  1.0000
  C   C19       1.0  0.42714  0.12123  0.29241  1.0000
  C   C20       1.0  0.57286  0.87878  0.70759  1.0000
  C   C21       1.0  0.31065  0.23150  0.11042  1.0000
  C   C22       1.0  0.68935  0.76850  0.88958  1.0000
  C   C23       1.0  0.18824  0.98872  0.22884  1.0000
  C   C24       1.0  0.81177  0.01128  0.77117  1.0000
  C   C25       1.0  0.08967  0.99332  0.11129  1.0000
  C   C26       1.0  0.91033  0.00668  0.88872  1.0000
  C   C27       1.0  0.16217  0.90079  0.00597  1.0000
  C   C28       1.0  0.83783  0.09922  0.99403  1.0000
  C   C29       1.0  0.92676  0.09253  0.10474  1.0000
  C   C30       1.0  0.07324  0.90748  0.89526  1.0000
  N   N1        1.0  0.43197  0.31898  0.12591  1.0000
  N   N2        1.0  0.56803  0.68102  0.87409  1.0000
  N   N3        1.0  0.30455  0.11085  0.20954  1.0000
  N   N4        1.0  0.69545  0.88915  0.79047  1.0000
  O   O1        1.0  0.70084  0.50789  0.09956  1.0000
  O   O2        1.0  0.29917  0.49211  0.90043  1.0000
  O   O3        1.0  0.50235  0.67437  0.22355  1.0000
  O   O4        1.0  0.49764  0.32563  0.77643  1.0000
  O   O5        1.0  0.18886  0.79936  0.56760  1.0000
  O   O6        1.0  0.81112  0.20063  0.43241  1.0000
