data_image0
_chemical_formula_structural       Sn4H48C20O8
_chemical_formula_sum              "Sn4 H48 C20 O8"
_cell_length_a       7.84721
_cell_length_b       9.36481
_cell_length_c       10.6633
_cell_angle_alpha    90.0006
_cell_angle_beta     90
_cell_angle_gamma    90.0012

_space_group_name_H-M_alt    "P 1"
_space_group_IT_number       1

loop_
  _space_group_symop_operation_xyz
  'x, y, z'

loop_
  _atom_site_type_symbol
  _atom_site_label
  _atom_site_symmetry_multiplicity
  _atom_site_fract_x
  _atom_site_fract_y
  _atom_site_fract_z
  _atom_site_occupancy
  Sn  Sn1       1.0  0.25004  0.17661  0.09519  1.0000
  Sn  Sn2       1.0  0.24999  0.32336  0.59521  1.0000
  Sn  Sn3       1.0  0.74997  0.82342  0.90485  1.0000
  Sn  Sn4       1.0  0.75001  0.67662  0.40480  1.0000
  H   H1        1.0  0.24997  0.84462  0.75416  1.0000
  H   H2        1.0  0.25004  0.65539  0.25418  1.0000
  H   H3        1.0  0.75004  0.15540  0.24584  1.0000
  H   H4        1.0  0.74998  0.34461  0.74583  1.0000
  H   H5        1.0  0.13797  0.96598  0.65434  1.0000
  H   H6        1.0  0.36203  0.53402  0.15435  1.0000
  H   H7        1.0  0.63802  0.03403  0.34565  1.0000
  H   H8        1.0  0.86199  0.46600  0.84565  1.0000
  H   H9        1.0  0.86202  0.03400  0.34564  1.0000
  H   H10       1.0  0.63799  0.46600  0.84565  1.0000
  H   H11       1.0  0.36197  0.96596  0.65433  1.0000
  H   H12       1.0  0.13804  0.53403  0.15434  1.0000
  H   H13       1.0  0.24998  0.01844  0.30923  1.0000
  H   H14       1.0  0.25000  0.48156  0.80922  1.0000
  H   H15       1.0  0.75002  0.98153  0.69077  1.0000
  H   H16       1.0  0.74999  0.51844  0.19077  1.0000
  H   H17       1.0  0.13666  0.92428  0.18842  1.0000
  H   H18       1.0  0.36334  0.57572  0.68842  1.0000
  H   H19       1.0  0.63667  0.07575  0.81154  1.0000
  H   H20       1.0  0.86332  0.42426  0.31154  1.0000
  H   H21       1.0  0.86334  0.07573  0.81156  1.0000
  H   H22       1.0  0.63668  0.42427  0.31154  1.0000
  H   H23       1.0  0.36332  0.92426  0.18845  1.0000
  H   H24       1.0  0.13668  0.57573  0.68842  1.0000
  H   H25       1.0  0.96461  0.34257  0.11168  1.0000
  H   H26       1.0  0.53536  0.15740  0.61169  1.0000
  H   H27       1.0  0.46465  0.65740  0.88833  1.0000
  H   H28       1.0  0.03538  0.84258  0.38832  1.0000
  H   H29       1.0  0.03534  0.65744  0.88830  1.0000
  H   H30       1.0  0.46467  0.84260  0.38830  1.0000
  H   H31       1.0  0.53539  0.34261  0.11169  1.0000
  H   H32       1.0  0.96460  0.15740  0.61168  1.0000
  H   H33       1.0  0.91983  0.18510  0.02322  1.0000
  H   H34       1.0  0.58016  0.31485  0.52322  1.0000
  H   H35       1.0  0.41977  0.81484  0.97680  1.0000
  H   H36       1.0  0.08022  0.68513  0.47679  1.0000
  H   H37       1.0  0.08019  0.81489  0.97678  1.0000
  H   H38       1.0  0.41981  0.68516  0.47679  1.0000
  H   H39       1.0  0.58021  0.18517  0.02320  1.0000
  H   H40       1.0  0.91979  0.31484  0.52321  1.0000
  H   H41       1.0  0.03539  0.32875  0.95177  1.0000
  H   H42       1.0  0.46458  0.17120  0.45179  1.0000
  H   H43       1.0  0.53540  0.67124  0.04823  1.0000
  H   H44       1.0  0.96462  0.82878  0.54823  1.0000
  H   H45       1.0  0.96460  0.67124  0.04823  1.0000
  H   H46       1.0  0.53543  0.82881  0.54822  1.0000
  H   H47       1.0  0.46459  0.32880  0.95180  1.0000
  H   H48       1.0  0.03538  0.17120  0.45179  1.0000
  C   C1        1.0  0.25000  0.06551  0.81566  1.0000
  C   C2        1.0  0.25001  0.43446  0.31565  1.0000
  C   C3        1.0  0.75000  0.93448  0.18433  1.0000
  C   C4        1.0  0.74999  0.56555  0.68435  1.0000
  C   C5        1.0  0.24998  0.95247  0.71483  1.0000
  C   C6        1.0  0.25003  0.54753  0.21484  1.0000
  C   C7        1.0  0.75002  0.04753  0.28515  1.0000
  C   C8        1.0  0.74999  0.45247  0.78517  1.0000
  C   C9        1.0  0.25000  0.98816  0.21006  1.0000
  C   C10       1.0  0.25000  0.51183  0.71005  1.0000
  C   C11       1.0  0.75000  0.01184  0.78994  1.0000
  C   C12       1.0  0.75000  0.48817  0.28995  1.0000
  C   C13       1.0  0.01284  0.27047  0.03918  1.0000
  C   C14       1.0  0.48714  0.22949  0.53919  1.0000
  C   C15       1.0  0.51281  0.72951  0.96083  1.0000
  C   C16       1.0  0.98719  0.77048  0.46084  1.0000
  C   C17       1.0  0.98716  0.72953  0.96082  1.0000
  C   C18       1.0  0.51285  0.77051  0.46082  1.0000
  C   C19       1.0  0.48719  0.27051  0.03918  1.0000
  C   C20       1.0  0.01282  0.22950  0.53918  1.0000
  O   O1        1.0  0.25002  0.02300  0.92987  1.0000
  O   O2        1.0  0.25000  0.47698  0.42985  1.0000
  O   O3        1.0  0.74997  0.97704  0.07016  1.0000
  O   O4        1.0  0.74999  0.52298  0.57016  1.0000
  O   O5        1.0  0.25000  0.30277  0.28632  1.0000
  O   O6        1.0  0.24999  0.19720  0.78631  1.0000
  O   O7        1.0  0.74999  0.69723  0.71367  1.0000
  O   O8        1.0  0.75001  0.80279  0.21365  1.0000
