data_image0
_chemical_formula_structural       Sn4H48C20O8
_chemical_formula_sum              "Sn4 H48 C20 O8"
_cell_length_a       7.63742
_cell_length_b       9.25209
_cell_length_c       10.7703
_cell_angle_alpha    89.9992
_cell_angle_beta     89.9998
_cell_angle_gamma    90.0009

_space_group_name_H-M_alt    "P 1"
_space_group_IT_number       1

loop_
  _space_group_symop_operation_xyz
  'x, y, z'

loop_
  _atom_site_type_symbol
  _atom_site_label
  _atom_site_symmetry_multiplicity
  _atom_site_fract_x
  _atom_site_fract_y
  _atom_site_fract_z
  _atom_site_occupancy
  Sn  Sn1       1.0  0.25002  0.17878  0.91016  1.0000
  Sn  Sn2       1.0  0.75000  0.67876  0.58986  1.0000
  Sn  Sn3       1.0  0.24995  0.32123  0.41017  1.0000
  Sn  Sn4       1.0  0.75003  0.82125  0.08982  1.0000
  H   H1        1.0  0.25003  0.51166  0.87613  1.0000
  H   H2        1.0  0.75000  0.01166  0.62385  1.0000
  H   H3        1.0  0.25000  0.98836  0.37613  1.0000
  H   H4        1.0  0.75000  0.48835  0.12388  1.0000
  H   H5        1.0  0.13481  0.62271  0.76768  1.0000
  H   H6        1.0  0.86521  0.12271  0.73230  1.0000
  H   H7        1.0  0.36520  0.87731  0.26767  1.0000
  H   H8        1.0  0.63481  0.37730  0.23234  1.0000
  H   H9        1.0  0.86521  0.37729  0.23233  1.0000
  H   H10       1.0  0.13480  0.87730  0.26768  1.0000
  H   H11       1.0  0.63480  0.12271  0.73230  1.0000
  H   H12       1.0  0.36522  0.62271  0.76767  1.0000
  H   H13       1.0  0.03465  0.35738  0.03620  1.0000
  H   H14       1.0  0.96536  0.85735  0.46381  1.0000
  H   H15       1.0  0.46532  0.14262  0.53620  1.0000
  H   H16       1.0  0.53468  0.64263  0.96380  1.0000
  H   H17       1.0  0.96534  0.64263  0.96378  1.0000
  H   H18       1.0  0.03462  0.14264  0.53622  1.0000
  H   H19       1.0  0.53468  0.85736  0.46377  1.0000
  H   H20       1.0  0.46536  0.35738  0.03621  1.0000
  H   H21       1.0  0.91613  0.19788  0.99237  1.0000
  H   H22       1.0  0.08388  0.69785  0.50765  1.0000
  H   H23       1.0  0.58384  0.30212  0.49236  1.0000
  H   H24       1.0  0.41615  0.80213  0.00763  1.0000
  H   H25       1.0  0.08388  0.80213  0.00760  1.0000
  H   H26       1.0  0.91611  0.30213  0.49238  1.0000
  H   H27       1.0  0.41613  0.69786  0.50760  1.0000
  H   H28       1.0  0.58387  0.19788  0.99239  1.0000
  H   H29       1.0  0.95263  0.33761  0.88117  1.0000
  H   H30       1.0  0.04738  0.83758  0.61884  1.0000
  H   H31       1.0  0.54735  0.16239  0.38116  1.0000
  H   H32       1.0  0.45264  0.66240  0.11883  1.0000
  H   H33       1.0  0.04740  0.66239  0.11880  1.0000
  H   H34       1.0  0.95257  0.16240  0.38120  1.0000
  H   H35       1.0  0.45261  0.83760  0.61880  1.0000
  H   H36       1.0  0.54739  0.33760  0.88119  1.0000
  H   H37       1.0  0.25000  0.02122  0.69735  1.0000
  H   H38       1.0  0.74998  0.52119  0.80266  1.0000
  H   H39       1.0  0.24998  0.47879  0.19734  1.0000
  H   H40       1.0  0.75000  0.97879  0.30266  1.0000
  H   H41       1.0  0.13360  0.92410  0.81574  1.0000
  H   H42       1.0  0.86639  0.42408  0.68427  1.0000
  H   H43       1.0  0.36639  0.57590  0.31575  1.0000
  H   H44       1.0  0.63359  0.07590  0.18425  1.0000
  H   H45       1.0  0.86640  0.07593  0.18426  1.0000
  H   H46       1.0  0.13358  0.57592  0.31575  1.0000
  H   H47       1.0  0.63359  0.42407  0.68426  1.0000
  H   H48       1.0  0.36641  0.92409  0.81574  1.0000
  C   C1        1.0  0.25002  0.43450  0.68508  1.0000
  C   C2        1.0  0.74997  0.93449  0.81493  1.0000
  C   C3        1.0  0.24998  0.06550  0.18509  1.0000
  C   C4        1.0  0.75000  0.56547  0.31494  1.0000
  C   C5        1.0  0.25002  0.55348  0.78116  1.0000
  C   C6        1.0  0.75000  0.05348  0.71882  1.0000
  C   C7        1.0  0.25000  0.94653  0.28117  1.0000
  C   C8        1.0  0.75001  0.44652  0.21884  1.0000
  C   C9        1.0  0.00836  0.28077  0.96101  1.0000
  C   C10       1.0  0.99165  0.78074  0.53900  1.0000
  C   C11       1.0  0.49162  0.21922  0.46101  1.0000
  C   C12       1.0  0.50837  0.71924  0.03899  1.0000
  C   C13       1.0  0.99166  0.71924  0.03896  1.0000
  C   C14       1.0  0.00831  0.21924  0.46103  1.0000
  C   C15       1.0  0.50836  0.78076  0.53896  1.0000
  C   C16       1.0  0.49166  0.28077  0.96103  1.0000
  C   C17       1.0  0.25000  0.98910  0.79515  1.0000
  C   C18       1.0  0.74999  0.48908  0.70486  1.0000
  C   C19       1.0  0.24998  0.51091  0.29514  1.0000
  C   C20       1.0  0.75001  0.01091  0.20486  1.0000
  O   O1        1.0  0.25000  0.30204  0.71556  1.0000
  O   O2        1.0  0.74999  0.80204  0.78444  1.0000
  O   O3        1.0  0.24997  0.19796  0.21554  1.0000
  O   O4        1.0  0.75004  0.69796  0.28446  1.0000
  O   O5        1.0  0.25000  0.47622  0.57135  1.0000
  O   O6        1.0  0.75001  0.97623  0.92863  1.0000
  O   O7        1.0  0.25000  0.02379  0.07135  1.0000
  O   O8        1.0  0.75002  0.52378  0.42867  1.0000
