data_image0
_chemical_formula_structural       Cu2H18C18Br2N10
_chemical_formula_sum              "Cu2 H18 C18 Br2 N10"
_cell_length_a       7.38258
_cell_length_b       7.67561
_cell_length_c       9.92588
_cell_angle_alpha    80.7016
_cell_angle_beta     75.7357
_cell_angle_gamma    84.8806

_space_group_name_H-M_alt    "P 1"
_space_group_IT_number       1

loop_
  _space_group_symop_operation_xyz
  'x, y, z'

loop_
  _atom_site_type_symbol
  _atom_site_label
  _atom_site_symmetry_multiplicity
  _atom_site_fract_x
  _atom_site_fract_y
  _atom_site_fract_z
  _atom_site_occupancy
  Cu  Cu1       1.0  0.16758  0.33312  0.38503  1.0000
  Cu  Cu2       1.0  0.83241  0.66689  0.61497  1.0000
  H   H1        1.0  0.53815  0.48076  0.29849  1.0000
  H   H2        1.0  0.46186  0.51924  0.70150  1.0000
  H   H3        1.0  0.70406  0.70395  0.10621  1.0000
  H   H4        1.0  0.29595  0.29605  0.89379  1.0000
  H   H5        1.0  0.53522  0.86192  0.92912  1.0000
  H   H6        1.0  0.46479  0.13808  0.07088  1.0000
  H   H7        1.0  0.06116  0.54780  0.14110  1.0000
  H   H8        1.0  0.93884  0.45220  0.85890  1.0000
  H   H9        1.0  0.12085  0.26101  0.69628  1.0000
  H   H10       1.0  0.87914  0.73899  0.30372  1.0000
  H   H11       1.0  0.92751  0.16628  0.66349  1.0000
  H   H12       1.0  0.07249  0.83372  0.33651  1.0000
  H   H13       1.0  0.15550  0.00049  0.48153  1.0000
  H   H14       1.0  0.84450  0.99951  0.51847  1.0000
  H   H15       1.0  0.46415  0.12553  0.37661  1.0000
  H   H16       1.0  0.53584  0.87447  0.62339  1.0000
  H   H17       1.0  0.42832  0.26558  0.51755  1.0000
  H   H18       1.0  0.57167  0.73442  0.48245  1.0000
  C   C1        1.0  0.46847  0.55047  0.21896  1.0000
  C   C2        1.0  0.53153  0.44953  0.78104  1.0000
  C   C3        1.0  0.55991  0.67599  0.11276  1.0000
  C   C4        1.0  0.44010  0.32401  0.88723  1.0000
  C   C5        1.0  0.46660  0.76285  0.01331  1.0000
  C   C6        1.0  0.53339  0.23715  0.98669  1.0000
  C   C7        1.0  0.20211  0.58880  0.13084  1.0000
  C   C8        1.0  0.79788  0.41120  0.86916  1.0000
  C   C9        1.0  0.28267  0.72002  0.02291  1.0000
  C   C10       1.0  0.71733  0.27999  0.97709  1.0000
  C   C11       1.0  0.17279  0.81323  0.92734  1.0000
  C   C12       1.0  0.82721  0.18677  0.07267  1.0000
  C   C13       1.0  0.07613  0.14452  0.66416  1.0000
  C   C14       1.0  0.92386  0.85548  0.33584  1.0000
  C   C15       1.0  0.19336  0.11239  0.52244  1.0000
  C   C16       1.0  0.80664  0.88761  0.47756  1.0000
  C   C17       1.0  0.36758  0.18168  0.46289  1.0000
  C   C18       1.0  0.63242  0.81832  0.53711  1.0000
  Br  Br1       1.0  0.83800  0.38333  0.40990  1.0000
  Br  Br2       1.0  0.16200  0.61667  0.59009  1.0000
  N   N1        1.0  0.29214  0.50700  0.22781  1.0000
  N   N2        1.0  0.70787  0.49300  0.77219  1.0000
  N   N3        1.0  0.08452  0.99455  0.77460  1.0000
  N   N4        1.0  0.91547  0.00545  0.22540  1.0000
  N   N5        1.0  0.23602  0.94378  0.82292  1.0000
  N   N6        1.0  0.76398  0.05622  0.17708  1.0000
  N   N7        1.0  0.93434  0.90355  0.84217  1.0000
  N   N8        1.0  0.06566  0.09644  0.15783  1.0000
  N   N9        1.0  0.98868  0.78776  0.93965  1.0000
  N   N10       1.0  0.01132  0.21224  0.06035  1.0000
