data_image0
_chemical_formula_structural       Mn4H48C28O20
_chemical_formula_sum              "Mn4 H48 C28 O20"
_cell_length_a       6.79985
_cell_length_b       10.7959
_cell_length_c       12.9017
_cell_angle_alpha    89.9996
_cell_angle_beta     105.289
_cell_angle_gamma    90.0005

_space_group_name_H-M_alt    "P 1"
_space_group_IT_number       1

loop_
  _space_group_symop_operation_xyz
  'x, y, z'

loop_
  _atom_site_type_symbol
  _atom_site_label
  _atom_site_symmetry_multiplicity
  _atom_site_fract_x
  _atom_site_fract_y
  _atom_site_fract_z
  _atom_site_occupancy
  Mn  Mn1       1.0  0.64099  0.28479  0.99992  1.0000
  Mn  Mn2       1.0  0.85901  0.78479  0.00007  1.0000
  Mn  Mn3       1.0  0.35901  0.71521  0.00008  1.0000
  Mn  Mn4       1.0  0.14099  0.21521  0.99992  1.0000
  H   H1        1.0  0.84419  0.59168  0.25089  1.0000
  H   H2        1.0  0.65581  0.09168  0.74911  1.0000
  H   H3        1.0  0.40661  0.40833  0.25089  1.0000
  H   H4        1.0  0.09339  0.90833  0.74912  1.0000
  H   H5        1.0  0.15581  0.40832  0.74911  1.0000
  H   H6        1.0  0.34419  0.90832  0.25089  1.0000
  H   H7        1.0  0.59340  0.59167  0.74911  1.0000
  H   H8        1.0  0.90660  0.09167  0.25088  1.0000
  H   H9        1.0  0.93134  0.47454  0.34638  1.0000
  H   H10       1.0  0.56867  0.97454  0.65362  1.0000
  H   H11       1.0  0.41490  0.52548  0.34635  1.0000
  H   H12       1.0  0.08510  0.02547  0.65365  1.0000
  H   H13       1.0  0.06867  0.52546  0.65362  1.0000
  H   H14       1.0  0.43134  0.02546  0.34638  1.0000
  H   H15       1.0  0.58510  0.47453  0.65365  1.0000
  H   H16       1.0  0.91490  0.97453  0.34635  1.0000
  H   H17       1.0  0.97917  0.68434  0.43060  1.0000
  H   H18       1.0  0.52084  0.18434  0.56940  1.0000
  H   H19       1.0  0.45151  0.31573  0.43062  1.0000
  H   H20       1.0  0.04849  0.81573  0.56938  1.0000
  H   H21       1.0  0.02083  0.31566  0.56940  1.0000
  H   H22       1.0  0.47917  0.81566  0.43060  1.0000
  H   H23       1.0  0.54849  0.68427  0.56938  1.0000
  H   H24       1.0  0.95151  0.18427  0.43062  1.0000
  H   H25       1.0  0.13309  0.73059  0.34615  1.0000
  H   H26       1.0  0.36691  0.23059  0.65385  1.0000
  H   H27       1.0  0.21310  0.26940  0.34621  1.0000
  H   H28       1.0  0.28690  0.76940  0.65379  1.0000
  H   H29       1.0  0.86691  0.26941  0.65385  1.0000
  H   H30       1.0  0.63309  0.76941  0.34615  1.0000
  H   H31       1.0  0.78690  0.73060  0.65379  1.0000
  H   H32       1.0  0.71310  0.23060  0.34621  1.0000
  H   H33       1.0  0.22039  0.61452  0.44569  1.0000
  H   H34       1.0  0.27961  0.11452  0.55431  1.0000
  H   H35       1.0  0.22539  0.38553  0.44569  1.0000
  H   H36       1.0  0.27462  0.88553  0.55432  1.0000
  H   H37       1.0  0.77961  0.38547  0.55431  1.0000
  H   H38       1.0  0.72039  0.88548  0.44569  1.0000
  H   H39       1.0  0.77462  0.61447  0.55431  1.0000
  H   H40       1.0  0.72538  0.11447  0.44568  1.0000
  H   H41       1.0  0.35032  0.43830  0.06231  1.0000
  H   H42       1.0  0.14968  0.93830  0.93768  1.0000
  H   H43       1.0  0.71199  0.56164  0.06229  1.0000
  H   H44       1.0  0.78801  0.06163  0.93771  1.0000
  H   H45       1.0  0.64968  0.56170  0.93768  1.0000
  H   H46       1.0  0.85031  0.06170  0.06231  1.0000
  H   H47       1.0  0.28801  0.43836  0.93771  1.0000
  H   H48       1.0  0.21199  0.93836  0.06229  1.0000
  C   C1        1.0  0.99810  0.40098  0.15815  1.0000
  C   C2        1.0  0.50188  0.90097  0.84185  1.0000
  C   C3        1.0  0.15995  0.59900  0.15823  1.0000
  C   C4        1.0  0.34006  0.09901  0.84177  1.0000
  C   C5        1.0  0.00190  0.59902  0.84185  1.0000
  C   C6        1.0  0.49812  0.09903  0.15815  1.0000
  C   C7        1.0  0.84005  0.40100  0.84177  1.0000
  C   C8        1.0  0.65994  0.90099  0.15823  1.0000
  C   C9        1.0  0.11825  0.49997  0.23671  1.0000
  C   C10       1.0  0.38174  0.99997  0.76329  1.0000
  C   C11       1.0  0.88175  0.50003  0.76329  1.0000
  C   C12       1.0  0.61825  0.00003  0.23670  1.0000
  C   C13       1.0  0.98230  0.55249  0.30493  1.0000
  C   C14       1.0  0.51770  0.05249  0.69507  1.0000
  C   C15       1.0  0.32251  0.44750  0.30491  1.0000
  C   C16       1.0  0.17749  0.94750  0.69509  1.0000
  C   C17       1.0  0.01770  0.44751  0.69507  1.0000
  C   C18       1.0  0.48230  0.94751  0.30493  1.0000
  C   C19       1.0  0.67749  0.55250  0.69509  1.0000
  C   C20       1.0  0.82251  0.05250  0.30491  1.0000
  C   C21       1.0  0.08563  0.65052  0.38624  1.0000
  C   C22       1.0  0.41437  0.15052  0.61376  1.0000
  C   C23       1.0  0.30065  0.34951  0.38625  1.0000
  C   C24       1.0  0.19936  0.84950  0.61375  1.0000
  C   C25       1.0  0.91437  0.34948  0.61376  1.0000
  C   C26       1.0  0.58563  0.84948  0.38624  1.0000
  C   C27       1.0  0.69936  0.65050  0.61375  1.0000
  C   C28       1.0  0.80064  0.15050  0.38625  1.0000
  O   O1        1.0  0.34814  0.38244  0.99999  1.0000
  O   O2        1.0  0.15185  0.88244  0.00001  1.0000
  O   O3        1.0  0.65185  0.61756  0.00001  1.0000
  O   O4        1.0  0.84815  0.11756  0.99999  1.0000
  O   O5        1.0  0.80795  0.42068  0.11572  1.0000
  O   O6        1.0  0.69206  0.92067  0.88428  1.0000
  O   O7        1.0  0.30769  0.57926  0.11584  1.0000
  O   O8        1.0  0.19230  0.07926  0.88416  1.0000
  O   O9        1.0  0.19205  0.57932  0.88428  1.0000
  O   O10       1.0  0.30794  0.07932  0.11572  1.0000
  O   O11       1.0  0.69231  0.42074  0.88416  1.0000
  O   O12       1.0  0.80770  0.92074  0.11584  1.0000
  O   O13       1.0  0.09296  0.30829  0.13582  1.0000
  O   O14       1.0  0.40703  0.80830  0.86418  1.0000
  O   O15       1.0  0.04294  0.69178  0.13595  1.0000
  O   O16       1.0  0.45704  0.19177  0.86404  1.0000
  O   O17       1.0  0.90704  0.69171  0.86418  1.0000
  O   O18       1.0  0.59296  0.19170  0.13582  1.0000
  O   O19       1.0  0.95706  0.30822  0.86405  1.0000
  O   O20       1.0  0.54295  0.80822  0.13596  1.0000
