data_image0
_chemical_formula_structural       Ag2H26C26S4N6O6F6
_chemical_formula_sum              "Ag2 H26 C26 S4 N6 O6 F6"
_cell_length_a       8.14256
_cell_length_b       8.59034
_cell_length_c       12.8959
_cell_angle_alpha    87.3366
_cell_angle_beta     75.7911
_cell_angle_gamma    70.54

_space_group_name_H-M_alt    "P 1"
_space_group_IT_number       1

loop_
  _space_group_symop_operation_xyz
  'x, y, z'

loop_
  _atom_site_type_symbol
  _atom_site_label
  _atom_site_symmetry_multiplicity
  _atom_site_fract_x
  _atom_site_fract_y
  _atom_site_fract_z
  _atom_site_occupancy
  Ag  Ag1       1.0  0.78646  0.39041  0.37166  1.0000
  Ag  Ag2       1.0  0.21354  0.60959  0.62834  1.0000
  H   H1        1.0  0.89777  0.46114  0.13942  1.0000
  H   H2        1.0  0.10223  0.53886  0.86058  1.0000
  H   H3        1.0  0.82969  0.68438  0.00845  1.0000
  H   H4        1.0  0.17030  0.31563  0.99155  1.0000
  H   H5        1.0  0.59279  0.95519  0.07470  1.0000
  H   H6        1.0  0.40721  0.04482  0.92530  1.0000
  H   H7        1.0  0.43119  0.99124  0.26935  1.0000
  H   H8        1.0  0.56881  0.00877  0.73065  1.0000
  H   H9        1.0  0.54185  0.83358  0.46540  1.0000
  H   H10       1.0  0.45815  0.16642  0.53460  1.0000
  H   H11       1.0  0.51628  0.63977  0.45754  1.0000
  H   H12       1.0  0.48372  0.36024  0.54246  1.0000
  H   H13       1.0  0.75281  0.02803  0.58331  1.0000
  H   H14       1.0  0.24719  0.97197  0.41669  1.0000
  H   H15       1.0  0.76984  0.22824  0.59890  1.0000
  H   H16       1.0  0.23016  0.77176  0.40110  1.0000
  H   H17       1.0  0.86807  0.90124  0.43277  1.0000
  H   H18       1.0  0.13193  0.09876  0.56723  1.0000
  H   H19       1.0  0.02861  0.72924  0.24942  1.0000
  H   H20       1.0  0.97139  0.27075  0.75058  1.0000
  H   H21       1.0  0.37496  0.69378  0.01829  1.0000
  H   H22       1.0  0.62504  0.30621  0.98171  1.0000
  H   H23       1.0  0.18379  0.62898  0.04603  1.0000
  H   H24       1.0  0.81622  0.37101  0.95397  1.0000
  H   H25       1.0  0.20258  0.78329  0.95030  1.0000
  H   H26       1.0  0.79742  0.21671  0.04969  1.0000
  C   C1        1.0  0.79444  0.58072  0.16446  1.0000
  C   C2        1.0  0.20555  0.41928  0.83554  1.0000
  C   C3        1.0  0.75626  0.70432  0.09211  1.0000
  C   C4        1.0  0.24374  0.29569  0.90789  1.0000
  C   C5        1.0  0.62340  0.85501  0.12932  1.0000
  C   C6        1.0  0.37660  0.14500  0.87068  1.0000
  C   C7        1.0  0.53447  0.87484  0.23714  1.0000
  C   C8        1.0  0.46553  0.12517  0.76286  1.0000
  C   C9        1.0  0.57857  0.74477  0.30610  1.0000
  C   C10       1.0  0.42142  0.25524  0.69390  1.0000
  C   C11       1.0  0.48603  0.76238  0.42302  1.0000
  C   C12       1.0  0.51396  0.23762  0.57698  1.0000
  C   C13       1.0  0.71769  0.15519  0.55604  1.0000
  C   C14       1.0  0.28230  0.84481  0.44396  1.0000
  C   C15       1.0  0.87498  0.01415  0.39058  1.0000
  C   C16       1.0  0.12502  0.98585  0.60941  1.0000
  C   C17       1.0  0.97093  0.99262  0.27961  1.0000
  C   C18       1.0  0.02907  0.00738  0.72039  1.0000
  C   C19       1.0  0.04180  0.84590  0.21864  1.0000
  C   C20       1.0  0.95821  0.15410  0.78136  1.0000
  C   C21       1.0  0.13576  0.86803  0.11376  1.0000
  C   C22       1.0  0.86424  0.13197  0.88624  1.0000
  C   C23       1.0  0.22893  0.73606  0.02713  1.0000
  C   C24       1.0  0.77107  0.26394  0.97287  1.0000
  C   C25       1.0  0.60020  0.64154  0.76759  1.0000
  C   C26       1.0  0.39979  0.35846  0.23241  1.0000
  S   S1        1.0  0.03000  0.14375  0.20267  1.0000
  S   S2        1.0  0.97000  0.85625  0.79733  1.0000
  S   S3        1.0  0.76938  0.60397  0.63561  1.0000
  S   S4        1.0  0.23062  0.39602  0.36439  1.0000
  N   N1        1.0  0.70785  0.59914  0.26901  1.0000
  N   N2        1.0  0.29215  0.40086  0.73099  1.0000
  N   N3        1.0  0.80214  0.15550  0.44209  1.0000
  N   N4        1.0  0.19786  0.84449  0.55791  1.0000
  N   N5        1.0  0.14004  0.02131  0.09500  1.0000
  N   N6        1.0  0.85996  0.97869  0.90500  1.0000
  O   O1        1.0  0.70197  0.51158  0.57400  1.0000
  O   O2        1.0  0.29803  0.48842  0.42599  1.0000
  O   O3        1.0  0.06363  0.49235  0.33554  1.0000
  O   O4        1.0  0.93637  0.50765  0.66446  1.0000
  O   O5        1.0  0.75976  0.76953  0.59995  1.0000
  O   O6        1.0  0.24025  0.23047  0.40005  1.0000
  F   F1        1.0  0.58242  0.49755  0.80794  1.0000
  F   F2        1.0  0.41758  0.50245  0.19205  1.0000
  F   F3        1.0  0.64914  0.71441  0.84140  1.0000
  F   F4        1.0  0.35085  0.28559  0.15860  1.0000
  F   F5        1.0  0.43625  0.74277  0.75839  1.0000
  F   F6        1.0  0.56375  0.25723  0.24160  1.0000
