data_image0
_chemical_formula_structural       Cd2H32C32N20
_chemical_formula_sum              "Cd2 H32 C32 N20"
_cell_length_a       6.97191
_cell_length_b       10.4743
_cell_length_c       13.7004
_cell_angle_alpha    105.057
_cell_angle_beta     103.182
_cell_angle_gamma    96.0075

_space_group_name_H-M_alt    "P 1"
_space_group_IT_number       1

loop_
  _space_group_symop_operation_xyz
  'x, y, z'

loop_
  _atom_site_type_symbol
  _atom_site_label
  _atom_site_symmetry_multiplicity
  _atom_site_fract_x
  _atom_site_fract_y
  _atom_site_fract_z
  _atom_site_occupancy
  Cd  Cd1       1.0  0.67620  0.40409  0.44757  1.0000
  Cd  Cd2       1.0  0.32379  0.59592  0.55244  1.0000
  H   H1        1.0  0.46517  0.51791  0.26272  1.0000
  H   H2        1.0  0.53483  0.48208  0.73728  1.0000
  H   H3        1.0  0.51753  0.63068  0.19258  1.0000
  H   H4        1.0  0.48247  0.36931  0.80742  1.0000
  H   H5        1.0  0.72398  0.78689  0.53857  1.0000
  H   H6        1.0  0.27602  0.21312  0.46144  1.0000
  H   H7        1.0  0.54741  0.01804  0.32398  1.0000
  H   H8        1.0  0.45259  0.98196  0.67601  1.0000
  H   H9        1.0  0.94444  0.82431  0.94146  1.0000
  H   H10       1.0  0.05558  0.17569  0.05854  1.0000
  H   H11       1.0  0.74746  0.86597  0.22251  1.0000
  H   H12       1.0  0.25254  0.13402  0.77749  1.0000
  H   H13       1.0  0.19812  0.90170  0.28519  1.0000
  H   H14       1.0  0.80188  0.09831  0.71481  1.0000
  H   H15       1.0  0.82006  0.95650  0.45012  1.0000
  H   H16       1.0  0.17994  0.04349  0.54987  1.0000
  H   H17       1.0  0.11858  0.64237  0.97680  1.0000
  H   H18       1.0  0.88143  0.35762  0.02320  1.0000
  H   H19       1.0  0.10527  0.56699  0.13621  1.0000
  H   H20       1.0  0.89473  0.43300  0.86380  1.0000
  H   H21       1.0  0.65214  0.45673  0.07584  1.0000
  H   H22       1.0  0.34787  0.54327  0.92416  1.0000
  H   H23       1.0  0.40564  0.39197  0.07542  1.0000
  H   H24       1.0  0.59436  0.60803  0.92458  1.0000
  H   H25       1.0  0.61480  0.34369  0.15045  1.0000
  H   H26       1.0  0.38521  0.65631  0.84955  1.0000
  H   H27       1.0  0.72823  0.98502  0.98361  1.0000
  H   H28       1.0  0.27178  0.01498  0.01638  1.0000
  H   H29       1.0  0.81493  0.06937  0.12052  1.0000
  H   H30       1.0  0.18507  0.93063  0.87948  1.0000
  H   H31       1.0  0.58115  0.96171  0.07041  1.0000
  H   H32       1.0  0.41885  0.03828  0.92958  1.0000
  C   C1        1.0  0.76919  0.59367  0.29329  1.0000
  C   C2        1.0  0.23081  0.40633  0.70671  1.0000
  C   C3        1.0  0.56740  0.54599  0.21884  1.0000
  C   C4        1.0  0.43260  0.45401  0.78116  1.0000
  C   C5        1.0  0.08141  0.69524  0.36470  1.0000
  C   C6        1.0  0.91859  0.30476  0.63530  1.0000
  C   C7        1.0  0.27992  0.77445  0.38487  1.0000
  C   C8        1.0  0.72008  0.22555  0.61513  1.0000
  C   C9        1.0  0.61273  0.81133  0.47912  1.0000
  C   C10       1.0  0.38727  0.18868  0.52088  1.0000
  C   C11       1.0  0.92323  0.71250  0.18554  1.0000
  C   C12       1.0  0.07676  0.28749  0.81445  1.0000
  C   C13       1.0  0.51500  0.93936  0.35963  1.0000
  C   C14       1.0  0.48500  0.06063  0.64037  1.0000
  C   C15       1.0  0.94025  0.79500  0.01177  1.0000
  C   C16       1.0  0.05976  0.20499  0.98823  1.0000
  C   C17       1.0  0.82474  0.81592  0.16686  1.0000
  C   C18       1.0  0.17526  0.18408  0.83314  1.0000
  C   C19       1.0  0.31842  0.87349  0.33683  1.0000
  C   C20       1.0  0.68158  0.12651  0.66317  1.0000
  C   C21       1.0  0.66515  0.90680  0.43066  1.0000
  C   C22       1.0  0.33485  0.09320  0.56933  1.0000
  C   C23       1.0  0.03824  0.69088  0.03138  1.0000
  C   C24       1.0  0.96176  0.30911  0.96861  1.0000
  C   C25       1.0  0.03114  0.64828  0.11894  1.0000
  C   C26       1.0  0.96886  0.35171  0.88107  1.0000
  C   C27       1.0  0.83363  0.85957  0.07930  1.0000
  C   C28       1.0  0.16638  0.14042  0.92070  1.0000
  C   C29       1.0  0.56020  0.42695  0.12412  1.0000
  C   C30       1.0  0.43981  0.57305  0.87588  1.0000
  C   C31       1.0  0.73398  0.97469  0.06179  1.0000
  C   C32       1.0  0.26604  0.02530  0.93821  1.0000
  N   N1        1.0  0.83443  0.17452  0.32728  1.0000
  N   N2        1.0  0.16556  0.82549  0.67273  1.0000
  N   N3        1.0  0.66387  0.58135  0.59715  1.0000
  N   N4        1.0  0.33613  0.41866  0.40286  1.0000
  N   N5        1.0  0.77812  0.60106  0.68240  1.0000
  N   N6        1.0  0.22187  0.39894  0.31760  1.0000
  N   N7        1.0  0.70051  0.23624  0.31083  1.0000
  N   N8        1.0  0.29948  0.76377  0.68918  1.0000
  N   N9        1.0  0.83414  0.56687  0.38358  1.0000
  N   N10       1.0  0.16586  0.43314  0.61643  1.0000
  N   N11       1.0  0.02825  0.63024  0.42826  1.0000
  N   N12       1.0  0.97175  0.36977  0.57175  1.0000
  N   N13       1.0  0.42508  0.74600  0.45609  1.0000
  N   N14       1.0  0.57492  0.25401  0.54391  1.0000
  N   N15       1.0  0.92195  0.67398  0.27868  1.0000
  N   N16       1.0  0.07804  0.32602  0.72132  1.0000
  N   N17       1.0  0.88966  0.61824  0.76420  1.0000
  N   N18       1.0  0.11033  0.38176  0.23580  1.0000
  N   N19       1.0  0.96056  0.10979  0.34001  1.0000
  N   N20       1.0  0.03943  0.89022  0.65999  1.0000
