data_image0
_chemical_formula_structural       Cd2H32C48N8O8
_chemical_formula_sum              "Cd2 H32 C48 N8 O8"
_cell_length_a       7.20441
_cell_length_b       10.9449
_cell_length_c       15.1693
_cell_angle_alpha    109.204
_cell_angle_beta     89.98
_cell_angle_gamma    109.206

_space_group_name_H-M_alt    "P 1"
_space_group_IT_number       1

loop_
  _space_group_symop_operation_xyz
  'x, y, z'

loop_
  _atom_site_type_symbol
  _atom_site_label
  _atom_site_symmetry_multiplicity
  _atom_site_fract_x
  _atom_site_fract_y
  _atom_site_fract_z
  _atom_site_occupancy
  Cd  Cd1       1.0  0.87857  0.00009  0.25002  1.0000
  Cd  Cd2       1.0  0.12143  0.99991  0.74997  1.0000
  H   H1        1.0  0.50671  0.27315  0.20760  1.0000
  H   H2        1.0  0.23363  0.72712  0.29265  1.0000
  H   H3        1.0  0.49329  0.72685  0.79240  1.0000
  H   H4        1.0  0.76638  0.27288  0.70734  1.0000
  H   H5        1.0  0.36267  0.46051  0.26641  1.0000
  H   H6        1.0  0.90237  0.53974  0.23405  1.0000
  H   H7        1.0  0.63734  0.53950  0.73360  1.0000
  H   H8        1.0  0.09763  0.46025  0.76595  1.0000
  H   H9        1.0  0.51581  0.65534  0.41573  1.0000
  H   H10       1.0  0.86097  0.34469  0.08476  1.0000
  H   H11       1.0  0.48420  0.34467  0.58428  1.0000
  H   H12       1.0  0.13903  0.65530  0.91523  1.0000
  H   H13       1.0  0.81080  0.66039  0.50790  1.0000
  H   H14       1.0  0.15077  0.33975  0.99244  1.0000
  H   H15       1.0  0.18920  0.33961  0.49210  1.0000
  H   H16       1.0  0.84923  0.66024  0.00755  1.0000
  H   H17       1.0  0.08833  0.16384  0.10897  1.0000
  H   H18       1.0  0.92450  0.83701  0.39122  1.0000
  H   H19       1.0  0.91167  0.83616  0.89102  1.0000
  H   H20       1.0  0.07549  0.16299  0.60878  1.0000
  H   H21       1.0  0.35162  0.16727  0.00334  1.0000
  H   H22       1.0  0.18384  0.83331  0.49694  1.0000
  H   H23       1.0  0.64838  0.83272  0.99665  1.0000
  H   H24       1.0  0.81614  0.16669  0.50305  1.0000
  H   H25       1.0  0.42003  0.82554  0.06812  1.0000
  H   H26       1.0  0.59481  0.17424  0.43179  1.0000
  H   H27       1.0  0.57998  0.17446  0.93189  1.0000
  H   H28       1.0  0.40517  0.82576  0.56822  1.0000
  H   H29       1.0  0.14962  0.83324  0.16662  1.0000
  H   H30       1.0  0.31728  0.16696  0.33324  1.0000
  H   H31       1.0  0.85039  0.16678  0.83339  1.0000
  H   H32       1.0  0.68272  0.83306  0.66677  1.0000
  C   C1        1.0  0.80021  0.23877  0.29158  1.0000
  C   C2        1.0  0.56130  0.76152  0.20871  1.0000
  C   C3        1.0  0.19980  0.76123  0.70842  1.0000
  C   C4        1.0  0.43871  0.23848  0.79128  1.0000
  C   C5        1.0  0.73354  0.36018  0.32410  1.0000
  C   C6        1.0  0.37334  0.64006  0.17610  1.0000
  C   C7        1.0  0.26647  0.63982  0.67590  1.0000
  C   C8        1.0  0.62666  0.35994  0.82389  1.0000
  C   C9        1.0  0.57067  0.35907  0.27320  1.0000
  C   C10       1.0  0.21155  0.64118  0.22705  1.0000
  C   C11       1.0  0.42934  0.64093  0.72681  1.0000
  C   C12       1.0  0.78845  0.35882  0.77295  1.0000
  C   C13       1.0  0.49099  0.46358  0.30614  1.0000
  C   C14       1.0  0.02750  0.53660  0.19420  1.0000
  C   C15       1.0  0.50902  0.53643  0.69387  1.0000
  C   C16       1.0  0.97251  0.46339  0.80580  1.0000
  C   C17       1.0  0.57653  0.57273  0.39057  1.0000
  C   C18       1.0  0.00414  0.42740  0.10981  1.0000
  C   C19       1.0  0.42347  0.42728  0.60944  1.0000
  C   C20       1.0  0.99586  0.57259  0.89019  1.0000
  C   C21       1.0  0.73966  0.57638  0.44214  1.0000
  C   C22       1.0  0.16363  0.42381  0.05817  1.0000
  C   C23       1.0  0.26033  0.42361  0.55787  1.0000
  C   C24       1.0  0.83638  0.57618  0.94183  1.0000
  C   C25       1.0  0.81818  0.47016  0.40944  1.0000
  C   C26       1.0  0.34825  0.53008  0.09075  1.0000
  C   C27       1.0  0.18182  0.52983  0.59057  1.0000
  C   C28       1.0  0.65175  0.46992  0.90924  1.0000
  C   C29       1.0  0.16646  0.09070  0.09737  1.0000
  C   C30       1.0  0.07590  0.90988  0.40273  1.0000
  C   C31       1.0  0.83354  0.90930  0.90263  1.0000
  C   C32       1.0  0.92409  0.09012  0.59726  1.0000
  C   C33       1.0  0.31605  0.09263  0.03931  1.0000
  C   C34       1.0  0.22330  0.90778  0.46084  1.0000
  C   C35       1.0  0.68396  0.90737  0.96069  1.0000
  C   C36       1.0  0.77669  0.09221  0.53915  1.0000
  C   C37       1.0  0.41636  0.99889  0.02826  1.0000
  C   C38       1.0  0.41745  0.00119  0.47176  1.0000
  C   C39       1.0  0.58365  0.00110  0.97174  1.0000
  C   C40       1.0  0.58253  0.99882  0.52824  1.0000
  C   C41       1.0  0.35114  0.90211  0.07361  1.0000
  C   C42       1.0  0.44924  0.09791  0.42636  1.0000
  C   C43       1.0  0.64886  0.09789  0.92640  1.0000
  C   C44       1.0  0.55075  0.90210  0.57364  1.0000
  C   C45       1.0  0.20023  0.90666  0.12990  1.0000
  C   C46       1.0  0.29407  0.09361  0.37007  1.0000
  C   C47       1.0  0.79977  0.09335  0.87011  1.0000
  C   C48       1.0  0.70592  0.90640  0.62993  1.0000
  N   N1        1.0  0.11100  0.00072  0.14335  1.0000
  N   N2        1.0  0.11071  0.99973  0.35664  1.0000
  N   N3        1.0  0.88901  0.99929  0.85665  1.0000
  N   N4        1.0  0.88929  0.00028  0.64335  1.0000
  N   N5        1.0  0.99555  0.47952  0.45588  1.0000
  N   N6        1.0  0.51621  0.52075  0.04413  1.0000
  N   N7        1.0  0.00445  0.52048  0.54413  1.0000
  N   N8        1.0  0.48379  0.47925  0.95586  1.0000
  O   O1        1.0  0.77173  0.16560  0.20479  1.0000
  O   O2        1.0  0.60612  0.83440  0.29553  1.0000
  O   O3        1.0  0.22829  0.83441  0.79521  1.0000
  O   O4        1.0  0.39387  0.16560  0.70446  1.0000
  O   O5        1.0  0.87439  0.20745  0.35473  1.0000
  O   O6        1.0  0.66659  0.79307  0.14554  1.0000
  O   O7        1.0  0.12560  0.79255  0.64528  1.0000
  O   O8        1.0  0.33343  0.20693  0.85446  1.0000
