data_image0
_chemical_formula_structural       Al2H16C8Br6O4
_chemical_formula_sum              "Al2 H16 C8 Br6 O4"
_cell_length_a       6.62611
_cell_length_b       6.62585
_cell_length_c       12.5407
_cell_angle_alpha    92.2353
_cell_angle_beta     103.077
_cell_angle_gamma    119.891

_space_group_name_H-M_alt    "P 1"
_space_group_IT_number       1

loop_
  _space_group_symop_operation_xyz
  'x, y, z'

loop_
  _atom_site_type_symbol
  _atom_site_label
  _atom_site_symmetry_multiplicity
  _atom_site_fract_x
  _atom_site_fract_y
  _atom_site_fract_z
  _atom_site_occupancy
  Al  Al1       1.0  0.54644  0.29655  0.25009  1.0000
  Al  Al2       1.0  0.45354  0.70346  0.74991  1.0000
  H   H1        1.0  0.68764  0.42345  0.03510  1.0000
  H   H2        1.0  0.88831  0.65259  0.46493  1.0000
  H   H3        1.0  0.31239  0.57655  0.96491  1.0000
  H   H4        1.0  0.11171  0.34742  0.53508  1.0000
  H   H5        1.0  0.37471  0.20744  0.96543  1.0000
  H   H6        1.0  0.74193  0.40956  0.53469  1.0000
  H   H7        1.0  0.62531  0.79257  0.03457  1.0000
  H   H8        1.0  0.25809  0.59044  0.46532  1.0000
  H   H9        1.0  0.18517  0.84452  0.02995  1.0000
  H   H10       1.0  0.31484  0.15507  0.47003  1.0000
  H   H11       1.0  0.81484  0.15548  0.97004  1.0000
  H   H12       1.0  0.68516  0.84493  0.52998  1.0000
  H   H13       1.0  0.35834  0.79076  0.14520  1.0000
  H   H14       1.0  0.14545  0.21263  0.35482  1.0000
  H   H15       1.0  0.64167  0.20924  0.85479  1.0000
  H   H16       1.0  0.85455  0.78737  0.64520  1.0000
  C   C1        1.0  0.55377  0.23421  0.00654  1.0000
  C   C2        1.0  0.72766  0.54743  0.49350  1.0000
  C   C3        1.0  0.44625  0.76578  0.99345  1.0000
  C   C4        1.0  0.27233  0.45256  0.50652  1.0000
  C   C5        1.0  0.36394  0.87015  0.07019  1.0000
  C   C6        1.0  0.29997  0.29349  0.42982  1.0000
  C   C7        1.0  0.63605  0.12984  0.92981  1.0000
  C   C8        1.0  0.70002  0.70650  0.57019  1.0000
  Br  Br1       1.0  0.89542  0.64489  0.25018  1.0000
  Br  Br2       1.0  0.10453  0.35515  0.74980  1.0000
  Br  Br3       1.0  0.60524  0.02500  0.34575  1.0000
  Br  Br4       1.0  0.17903  0.25931  0.15441  1.0000
  Br  Br5       1.0  0.39471  0.97496  0.65423  1.0000
  Br  Br6       1.0  0.82096  0.74069  0.84558  1.0000
  O   O1        1.0  0.53832  0.12481  0.10589  1.0000
  O   O2        1.0  0.51886  0.43241  0.39413  1.0000
  O   O3        1.0  0.46169  0.87519  0.89410  1.0000
  O   O4        1.0  0.48115  0.56758  0.60588  1.0000
