data_image0
_chemical_formula_structural       Zn2H22C28N4O14
_chemical_formula_sum              "Zn2 H22 C28 N4 O14"
_cell_length_a       7.20572
_cell_length_b       9.50914
_cell_length_c       12.3074
_cell_angle_alpha    68.3593
_cell_angle_beta     80.7466
_cell_angle_gamma    73.836

_space_group_name_H-M_alt    "P 1"
_space_group_IT_number       1

loop_
  _space_group_symop_operation_xyz
  'x, y, z'

loop_
  _atom_site_type_symbol
  _atom_site_label
  _atom_site_symmetry_multiplicity
  _atom_site_fract_x
  _atom_site_fract_y
  _atom_site_fract_z
  _atom_site_occupancy
  Zn  Zn1       1.0  0.11372  0.12655  0.11556  1.0000
  Zn  Zn2       1.0  0.88629  0.87345  0.88444  1.0000
  H   H1        1.0  0.35310  0.15000  0.92520  1.0000
  H   H2        1.0  0.64690  0.85001  0.07480  1.0000
  H   H3        1.0  0.47130  0.15700  0.02109  1.0000
  H   H4        1.0  0.52870  0.84299  0.97892  1.0000
  H   H5        1.0  0.50279  0.57232  0.37735  1.0000
  H   H6        1.0  0.49723  0.42767  0.62264  1.0000
  H   H7        1.0  0.53325  0.22663  0.22165  1.0000
  H   H8        1.0  0.46674  0.77337  0.77835  1.0000
  H   H9        1.0  0.35201  0.43338  0.05459  1.0000
  H   H10       1.0  0.64798  0.56663  0.94540  1.0000
  H   H11       1.0  0.94361  0.44006  0.13658  1.0000
  H   H12       1.0  0.05639  0.55995  0.86342  1.0000
  H   H13       1.0  0.91473  0.56563  0.28392  1.0000
  H   H14       1.0  0.08527  0.43437  0.71608  1.0000
  H   H15       1.0  0.20869  0.11924  0.51764  1.0000
  H   H16       1.0  0.79130  0.88076  0.48236  1.0000
  H   H17       1.0  0.23025  0.01147  0.35945  1.0000
  H   H18       1.0  0.76973  0.98853  0.64055  1.0000
  H   H19       1.0  0.98899  0.33923  0.59186  1.0000
  H   H20       1.0  0.01101  0.66078  0.40814  1.0000
  H   H21       1.0  0.20413  0.39824  0.53194  1.0000
  H   H22       1.0  0.79587  0.60175  0.46806  1.0000
  C   C1        1.0  0.33198  0.61871  0.12021  1.0000
  C   C2        1.0  0.66803  0.38129  0.87978  1.0000
  C   C3        1.0  0.37533  0.65889  0.21079  1.0000
  C   C4        1.0  0.62468  0.34110  0.78920  1.0000
  C   C5        1.0  0.47031  0.54310  0.30611  1.0000
  C   C6        1.0  0.52971  0.45689  0.69389  1.0000
  C   C7        1.0  0.52260  0.38960  0.30828  1.0000
  C   C8        1.0  0.47740  0.61040  0.69172  1.0000
  C   C9        1.0  0.48614  0.34730  0.21798  1.0000
  C   C10       1.0  0.51385  0.65270  0.78202  1.0000
  C   C11       1.0  0.38713  0.46321  0.12497  1.0000
  C   C12       1.0  0.61285  0.53679  0.87503  1.0000
  C   C13       1.0  0.23373  0.74258  0.01524  1.0000
  C   C14       1.0  0.76627  0.25742  0.98475  1.0000
  C   C15       1.0  0.32596  0.82719  0.20230  1.0000
  C   C16       1.0  0.67406  0.17281  0.79770  1.0000
  C   C17       1.0  0.00019  0.37262  0.22250  1.0000
  C   C18       1.0  0.99981  0.62739  0.77750  1.0000
  C   C19       1.0  0.98464  0.44208  0.30628  1.0000
  C   C20       1.0  0.01536  0.55792  0.69373  1.0000
  C   C21       1.0  0.06054  0.35282  0.41537  1.0000
  C   C22       1.0  0.93945  0.64719  0.58464  1.0000
  C   C23       1.0  0.14857  0.19509  0.43430  1.0000
  C   C24       1.0  0.85142  0.80491  0.56570  1.0000
  C   C25       1.0  0.16023  0.13338  0.34688  1.0000
  C   C26       1.0  0.83976  0.86662  0.65312  1.0000
  C   C27       1.0  0.05362  0.41525  0.51231  1.0000
  C   C28       1.0  0.94638  0.58475  0.48769  1.0000
  N   N1        1.0  0.61936  0.26727  0.40864  1.0000
  N   N2        1.0  0.38064  0.73272  0.59136  1.0000
  N   N3        1.0  0.08725  0.22120  0.24165  1.0000
  N   N4        1.0  0.91274  0.77881  0.75835  1.0000
  O   O1        1.0  0.07497  0.72139  0.99677  1.0000
  O   O2        1.0  0.92504  0.27862  0.00322  1.0000
  O   O3        1.0  0.31115  0.85201  0.95301  1.0000
  O   O4        1.0  0.68885  0.14800  0.04698  1.0000
  O   O5        1.0  0.14653  0.90009  0.18345  1.0000
  O   O6        1.0  0.85348  0.09991  0.81656  1.0000
  O   O7        1.0  0.45733  0.88527  0.20940  1.0000
  O   O8        1.0  0.54269  0.11472  0.79060  1.0000
  O   O9        1.0  0.62941  0.30021  0.49620  1.0000
  O   O10       1.0  0.37059  0.69978  0.50380  1.0000
  O   O11       1.0  0.68739  0.13572  0.40139  1.0000
  O   O12       1.0  0.31261  0.86428  0.59861  1.0000
  O   O13       1.0  0.33575  0.17907  0.99576  1.0000
  O   O14       1.0  0.66425  0.82093  0.00424  1.0000
