data_image0
_chemical_formula_structural       H24Pb4C16Br4N4O16
_chemical_formula_sum              "H24 Pb4 C16 Br4 N4 O16"
_cell_length_a       6.88037
_cell_length_b       8.59723
_cell_length_c       13.018
_cell_angle_alpha    100.41
_cell_angle_beta     89.9986
_cell_angle_gamma    90.0029

_space_group_name_H-M_alt    "P 1"
_space_group_IT_number       1

loop_
  _space_group_symop_operation_xyz
  'x, y, z'

loop_
  _atom_site_type_symbol
  _atom_site_label
  _atom_site_symmetry_multiplicity
  _atom_site_fract_x
  _atom_site_fract_y
  _atom_site_fract_z
  _atom_site_occupancy
  H   H1        1.0  0.29685  0.96336  0.08586  1.0000
  H   H2        1.0  0.79687  0.53663  0.41411  1.0000
  H   H3        1.0  0.70312  0.03662  0.91411  1.0000
  H   H4        1.0  0.20314  0.46338  0.58588  1.0000
  H   H5        1.0  0.20412  0.85568  0.97956  1.0000
  H   H6        1.0  0.70419  0.64433  0.52041  1.0000
  H   H7        1.0  0.79585  0.14430  0.02043  1.0000
  H   H8        1.0  0.29579  0.35565  0.47959  1.0000
  H   H9        1.0  0.14268  0.76088  0.18493  1.0000
  H   H10       1.0  0.64262  0.73908  0.31504  1.0000
  H   H11       1.0  0.85737  0.23907  0.81505  1.0000
  H   H12       1.0  0.35738  0.26091  0.68497  1.0000
  H   H13       1.0  0.00970  0.70070  0.06693  1.0000
  H   H14       1.0  0.50973  0.79929  0.43308  1.0000
  H   H15       1.0  0.99028  0.29929  0.93309  1.0000
  H   H16       1.0  0.49031  0.20072  0.56692  1.0000
  H   H17       1.0  0.36349  0.61650  0.04085  1.0000
  H   H18       1.0  0.86350  0.88351  0.45911  1.0000
  H   H19       1.0  0.63658  0.38348  0.95910  1.0000
  H   H20       1.0  0.13651  0.11648  0.54091  1.0000
  H   H21       1.0  0.49463  0.76454  0.12680  1.0000
  H   H22       1.0  0.99465  0.73545  0.37317  1.0000
  H   H23       1.0  0.50533  0.23544  0.87320  1.0000
  H   H24       1.0  0.00534  0.26455  0.62685  1.0000
  Pb  Pb1       1.0  0.65839  0.17395  0.27692  1.0000
  Pb  Pb2       1.0  0.15838  0.32606  0.22298  1.0000
  Pb  Pb3       1.0  0.34157  0.82616  0.72309  1.0000
  Pb  Pb4       1.0  0.84152  0.67389  0.77692  1.0000
  C   C1        1.0  0.94123  0.93452  0.15042  1.0000
  C   C2        1.0  0.44118  0.56548  0.34961  1.0000
  C   C3        1.0  0.05880  0.06549  0.84961  1.0000
  C   C4        1.0  0.55879  0.43453  0.65040  1.0000
  C   C5        1.0  0.08429  0.80066  0.11564  1.0000
  C   C6        1.0  0.58428  0.69930  0.38436  1.0000
  C   C7        1.0  0.91572  0.19931  0.88436  1.0000
  C   C8        1.0  0.41571  0.30068  0.61565  1.0000
  C   C9        1.0  0.41864  0.73815  0.05150  1.0000
  C   C10       1.0  0.91867  0.76186  0.44846  1.0000
  C   C11       1.0  0.58135  0.26185  0.94849  1.0000
  C   C12       1.0  0.08134  0.23814  0.55155  1.0000
  C   C13       1.0  0.55912  0.75048  0.96322  1.0000
  C   C14       1.0  0.05913  0.74951  0.53675  1.0000
  C   C15       1.0  0.44091  0.24957  0.03679  1.0000
  C   C16       1.0  0.94089  0.25047  0.46325  1.0000
  Br  Br1       1.0  0.30893  0.03026  0.33139  1.0000
  Br  Br2       1.0  0.80891  0.46981  0.16863  1.0000
  Br  Br3       1.0  0.69100  0.96980  0.66861  1.0000
  Br  Br4       1.0  0.19096  0.53016  0.83133  1.0000
  N   N1        1.0  0.25078  0.84906  0.05476  1.0000
  N   N2        1.0  0.75079  0.65092  0.44521  1.0000
  N   N3        1.0  0.74922  0.15090  0.94523  1.0000
  N   N4        1.0  0.24921  0.34907  0.55480  1.0000
  O   O1        1.0  0.80433  0.90546  0.20948  1.0000
  O   O2        1.0  0.30431  0.59453  0.29055  1.0000
  O   O3        1.0  0.19564  0.09455  0.79051  1.0000
  O   O4        1.0  0.69564  0.40547  0.70949  1.0000
  O   O5        1.0  0.96652  0.06634  0.12007  1.0000
  O   O6        1.0  0.46642  0.43368  0.38000  1.0000
  O   O7        1.0  0.03363  0.93371  0.88001  1.0000
  O   O8        1.0  0.53358  0.56633  0.62002  1.0000
  O   O9        1.0  0.53278  0.85778  0.90832  1.0000
  O   O10       1.0  0.03277  0.64225  0.59167  1.0000
  O   O11       1.0  0.46730  0.14229  0.09170  1.0000
  O   O12       1.0  0.96730  0.35774  0.40834  1.0000
  O   O13       1.0  0.69514  0.64926  0.94965  1.0000
  O   O14       1.0  0.19523  0.85068  0.55029  1.0000
  O   O15       1.0  0.30485  0.35074  0.05036  1.0000
  O   O16       1.0  0.80483  0.14929  0.44969  1.0000
