data_image0
_chemical_formula_structural       Cd2H26C40S2N6O8
_chemical_formula_sum              "Cd2 H26 C40 S2 N6 O8"
_cell_length_a       9.10049
_cell_length_b       9.21917
_cell_length_c       11.8739
_cell_angle_alpha    95.023
_cell_angle_beta     110.336
_cell_angle_gamma    106.25

_space_group_name_H-M_alt    "P 1"
_space_group_IT_number       1

loop_
  _space_group_symop_operation_xyz
  'x, y, z'

loop_
  _atom_site_type_symbol
  _atom_site_label
  _atom_site_symmetry_multiplicity
  _atom_site_fract_x
  _atom_site_fract_y
  _atom_site_fract_z
  _atom_site_occupancy
  Cd  Cd1       1.0  0.92153  0.49201  0.31716  1.0000
  Cd  Cd2       1.0  0.07848  0.50799  0.68284  1.0000
  H   H1        1.0  0.92956  0.78044  0.51157  1.0000
  H   H2        1.0  0.07043  0.21955  0.48843  1.0000
  H   H3        1.0  0.80336  0.99154  0.50731  1.0000
  H   H4        1.0  0.19662  0.00845  0.49270  1.0000
  H   H5        1.0  0.63222  0.03299  0.30441  1.0000
  H   H6        1.0  0.36778  0.96701  0.69559  1.0000
  H   H7        1.0  0.50716  0.94842  0.07631  1.0000
  H   H8        1.0  0.49284  0.05158  0.92369  1.0000
  H   H9        1.0  0.48459  0.78761  0.88673  1.0000
  H   H10       1.0  0.51542  0.21240  0.11327  1.0000
  H   H11       1.0  0.57338  0.59524  0.79054  1.0000
  H   H12       1.0  0.42662  0.40477  0.20947  1.0000
  H   H13       1.0  0.73060  0.40801  0.81774  1.0000
  H   H14       1.0  0.26940  0.59199  0.18226  1.0000
  H   H15       1.0  0.86831  0.36568  0.03133  1.0000
  H   H16       1.0  0.13169  0.63432  0.96867  1.0000
  H   H17       1.0  0.90192  0.98546  0.08880  1.0000
  H   H18       1.0  0.09808  0.01454  0.91120  1.0000
  H   H19       1.0  0.04061  0.78805  0.06504  1.0000
  H   H20       1.0  0.95939  0.21194  0.93497  1.0000
  H   H21       1.0  0.33653  0.84460  0.21024  1.0000
  H   H22       1.0  0.66347  0.15540  0.78976  1.0000
  H   H23       1.0  0.65469  0.36136  0.59164  1.0000
  H   H24       1.0  0.34531  0.63865  0.40835  1.0000
  H   H25       1.0  0.57421  0.16906  0.50261  1.0000
  H   H26       1.0  0.42579  0.83095  0.49739  1.0000
  C   C1        1.0  0.74950  0.73667  0.21288  1.0000
  C   C2        1.0  0.25050  0.26333  0.78713  1.0000
  C   C3        1.0  0.85626  0.80354  0.42508  1.0000
  C   C4        1.0  0.14373  0.19646  0.57492  1.0000
  C   C5        1.0  0.78449  0.92094  0.42179  1.0000
  C   C6        1.0  0.21551  0.07906  0.57821  1.0000
  C   C7        1.0  0.69069  0.94398  0.30993  1.0000
  C   C8        1.0  0.30931  0.05602  0.69008  1.0000
  C   C9        1.0  0.66926  0.84949  0.20106  1.0000
  C   C10       1.0  0.33075  0.15051  0.79894  1.0000
  C   C11       1.0  0.57206  0.86481  0.08186  1.0000
  C   C12       1.0  0.42794  0.13519  0.91814  1.0000
  C   C13       1.0  0.56002  0.77743  0.97795  1.0000
  C   C14       1.0  0.43998  0.22258  0.02205  1.0000
  C   C15       1.0  0.64549  0.66740  0.98634  1.0000
  C   C16       1.0  0.35451  0.33260  0.01366  1.0000
  C   C17       1.0  0.64310  0.57964  0.88155  1.0000
  C   C18       1.0  0.35690  0.42036  0.11845  1.0000
  C   C19       1.0  0.72738  0.47457  0.89664  1.0000
  C   C20       1.0  0.27262  0.52543  0.10336  1.0000
  C   C21       1.0  0.80876  0.45363  0.01534  1.0000
  C   C22       1.0  0.19125  0.54637  0.98466  1.0000
  C   C23       1.0  0.73715  0.64365  0.10341  1.0000
  C   C24       1.0  0.26285  0.35636  0.89659  1.0000
  C   C25       1.0  0.02884  0.25121  0.24476  1.0000
  C   C26       1.0  0.97116  0.74879  0.75524  1.0000
  C   C27       1.0  0.11730  0.13827  0.23669  1.0000
  C   C28       1.0  0.88270  0.86172  0.76331  1.0000
  C   C29       1.0  0.02996  0.00198  0.14775  1.0000
  C   C30       1.0  0.97004  0.99801  0.85225  1.0000
  C   C31       1.0  0.10608  0.89337  0.13538  1.0000
  C   C32       1.0  0.89391  0.10662  0.86463  1.0000
  C   C33       1.0  0.26992  0.92521  0.21572  1.0000
  C   C34       1.0  0.73007  0.07478  0.78429  1.0000
  C   C35       1.0  0.28461  0.15977  0.31410  1.0000
  C   C36       1.0  0.71539  0.84023  0.68590  1.0000
  C   C37       1.0  0.59639  0.29139  0.49805  1.0000
  C   C38       1.0  0.40360  0.70861  0.50195  1.0000
  C   C39       1.0  0.71750  0.34137  0.43548  1.0000
  C   C40       1.0  0.28250  0.65863  0.56452  1.0000
  S   S1        1.0  0.40203  0.32608  0.43047  1.0000
  S   S2        1.0  0.59796  0.67392  0.56952  1.0000
  N   N1        1.0  0.81441  0.53620  0.11536  1.0000
  N   N2        1.0  0.18559  0.46380  0.88464  1.0000
  N   N3        1.0  0.84000  0.71513  0.32400  1.0000
  N   N4        1.0  0.16001  0.28488  0.67601  1.0000
  N   N5        1.0  0.35722  0.05380  0.30275  1.0000
  N   N6        1.0  0.64278  0.94619  0.69725  1.0000
  O   O1        1.0  0.66730  0.37233  0.32949  1.0000
  O   O2        1.0  0.33270  0.62767  0.67051  1.0000
  O   O3        1.0  0.86818  0.35059  0.49381  1.0000
  O   O4        1.0  0.13182  0.64941  0.50619  1.0000
  O   O5        1.0  0.11696  0.38309  0.31916  1.0000
  O   O6        1.0  0.88304  0.61691  0.68083  1.0000
  O   O7        1.0  0.87590  0.21495  0.18121  1.0000
  O   O8        1.0  0.12410  0.78505  0.81878  1.0000
