data_image0
_chemical_formula_structural       Cu4H22C24N4Cl6O4
_chemical_formula_sum              "Cu4 H22 C24 N4 Cl6 O4"
_cell_length_a       7.62547
_cell_length_b       8.86594
_cell_length_c       11.8896
_cell_angle_alpha    78.5547
_cell_angle_beta     76.8113
_cell_angle_gamma    66.6733

_space_group_name_H-M_alt    "P 1"
_space_group_IT_number       1

loop_
  _space_group_symop_operation_xyz
  'x, y, z'

loop_
  _atom_site_type_symbol
  _atom_site_label
  _atom_site_symmetry_multiplicity
  _atom_site_fract_x
  _atom_site_fract_y
  _atom_site_fract_z
  _atom_site_occupancy
  Cu  Cu1       1.0  0.43418  0.01876  0.15784  1.0000
  Cu  Cu2       1.0  0.56564  0.98145  0.84206  1.0000
  Cu  Cu3       1.0  0.19622  0.02263  0.38770  1.0000
  Cu  Cu4       1.0  0.80355  0.97755  0.61226  1.0000
  H   H1        1.0  0.48919  0.51872  0.25123  1.0000
  H   H2        1.0  0.51080  0.48142  0.74854  1.0000
  H   H3        1.0  0.84044  0.45053  0.16926  1.0000
  H   H4        1.0  0.15947  0.54960  0.83033  1.0000
  H   H5        1.0  0.02994  0.17904  0.08926  1.0000
  H   H6        1.0  0.97003  0.82079  0.91080  1.0000
  H   H7        1.0  0.85269  0.99432  0.08447  1.0000
  H   H8        1.0  0.14733  0.00532  0.91603  1.0000
  H   H9        1.0  0.26985  0.54849  0.40746  1.0000
  H   H10       1.0  0.72934  0.45174  0.59279  1.0000
  H   H11       1.0  0.26082  0.51176  0.61986  1.0000
  H   H12       1.0  0.73844  0.48824  0.38034  1.0000
  H   H13       1.0  0.24405  0.24615  0.73841  1.0000
  H   H14       1.0  0.75645  0.75341  0.26160  1.0000
  H   H15       1.0  0.22487  0.03324  0.63387  1.0000
  H   H16       1.0  0.77625  0.96621  0.36598  1.0000
  H   H17       1.0  0.04139  0.63427  0.10565  1.0000
  H   H18       1.0  0.95893  0.36599  0.89429  1.0000
  H   H19       1.0  0.17427  0.42682  0.07025  1.0000
  H   H20       1.0  0.82592  0.57341  0.92965  1.0000
  H   H21       1.0  0.30047  0.55352  0.08372  1.0000
  H   H22       1.0  0.69999  0.44642  0.91628  1.0000
  C   C1        1.0  0.28292  0.31264  0.27627  1.0000
  C   C2        1.0  0.71691  0.68751  0.72371  1.0000
  C   C3        1.0  0.49192  0.28776  0.21744  1.0000
  C   C4        1.0  0.50802  0.71226  0.78259  1.0000
  C   C5        1.0  0.57605  0.40201  0.21611  1.0000
  C   C6        1.0  0.42393  0.59805  0.78377  1.0000
  C   C7        1.0  0.77098  0.36435  0.16935  1.0000
  C   C8        1.0  0.22898  0.63566  0.83049  1.0000
  C   C9        1.0  0.87613  0.21458  0.12383  1.0000
  C   C10       1.0  0.12382  0.78531  0.87622  1.0000
  C   C11       1.0  0.78079  0.11049  0.12217  1.0000
  C   C12       1.0  0.21917  0.88932  0.87808  1.0000
  C   C13       1.0  0.26522  0.30608  0.40785  1.0000
  C   C14       1.0  0.73456  0.69400  0.59217  1.0000
  C   C15       1.0  0.26698  0.43336  0.45938  1.0000
  C   C16       1.0  0.73252  0.56674  0.54076  1.0000
  C   C17       1.0  0.26049  0.41238  0.57911  1.0000
  C   C18       1.0  0.73918  0.58755  0.42101  1.0000
  C   C19       1.0  0.24969  0.26652  0.64448  1.0000
  C   C20       1.0  0.75053  0.73322  0.35555  1.0000
  C   C21       1.0  0.24143  0.14727  0.58814  1.0000
  C   C22       1.0  0.75911  0.85242  0.41179  1.0000
  C   C23       1.0  0.17013  0.52298  0.11784  1.0000
  C   C24       1.0  0.83013  0.47719  0.88211  1.0000
  N   N1        1.0  0.24988  0.16727  0.47209  1.0000
  N   N2        1.0  0.75032  0.83263  0.52786  1.0000
  N   N3        1.0  0.59225  0.14702  0.16803  1.0000
  N   N4        1.0  0.40766  0.85291  0.83213  1.0000
  Cl  Cl1       1.0  0.66102  0.81794  0.05640  1.0000
  Cl  Cl2       1.0  0.33887  0.18207  0.94369  1.0000
  Cl  Cl3       1.0  0.24063  0.86611  0.24169  1.0000
  Cl  Cl4       1.0  0.75912  0.13413  0.75822  1.0000
  Cl  Cl5       1.0  0.19588  0.82268  0.53602  1.0000
  Cl  Cl6       1.0  0.80444  0.17727  0.46386  1.0000
  O   O1        1.0  0.23195  0.18754  0.25202  1.0000
  O   O2        1.0  0.76773  0.81276  0.74793  1.0000
  O   O3        1.0  0.15286  0.47265  0.24094  1.0000
  O   O4        1.0  0.84729  0.52759  0.75899  1.0000
