data_image0
_chemical_formula_structural       Zn2H24C36S4I4N12
_chemical_formula_sum              "Zn2 H24 C36 S4 I4 N12"
_cell_length_a       9.88359
_cell_length_b       10.3468
_cell_length_c       11.6931
_cell_angle_alpha    93.2078
_cell_angle_beta     108.531
_cell_angle_gamma    99.5394

_space_group_name_H-M_alt    "P 1"
_space_group_IT_number       1

loop_
  _space_group_symop_operation_xyz
  'x, y, z'

loop_
  _atom_site_type_symbol
  _atom_site_label
  _atom_site_symmetry_multiplicity
  _atom_site_fract_x
  _atom_site_fract_y
  _atom_site_fract_z
  _atom_site_occupancy
  Zn  Zn1       1.0  0.69345  0.82485  0.51412  1.0000
  Zn  Zn2       1.0  0.30655  0.17515  0.48588  1.0000
  H   H1        1.0  0.27303  0.16575  0.08518  1.0000
  H   H2        1.0  0.72697  0.83425  0.91482  1.0000
  H   H3        1.0  0.22900  0.32885  0.93514  1.0000
  H   H4        1.0  0.77100  0.67115  0.06486  1.0000
  H   H5        1.0  0.31830  0.00552  0.18202  1.0000
  H   H6        1.0  0.68170  0.99448  0.81798  1.0000
  H   H7        1.0  0.20266  0.48722  0.37778  1.0000
  H   H8        1.0  0.79734  0.51278  0.62222  1.0000
  H   H9        1.0  0.28053  0.34290  0.24162  1.0000
  H   H10       1.0  0.71947  0.65710  0.75838  1.0000
  H   H11       1.0  0.76359  0.11703  0.19069  1.0000
  H   H12       1.0  0.23642  0.88298  0.80931  1.0000
  H   H13       1.0  0.70284  0.44180  0.22405  1.0000
  H   H14       1.0  0.29716  0.55820  0.77595  1.0000
  H   H15       1.0  0.12619  0.67888  0.42413  1.0000
  H   H16       1.0  0.87381  0.32112  0.57587  1.0000
  H   H17       1.0  0.40538  0.87627  0.35285  1.0000
  H   H18       1.0  0.59462  0.12373  0.64716  1.0000
  H   H19       1.0  0.83365  0.98340  0.36379  1.0000
  H   H20       1.0  0.16635  0.01660  0.63621  1.0000
  H   H21       1.0  0.59735  0.58056  0.34304  1.0000
  H   H22       1.0  0.40265  0.41944  0.65696  1.0000
  H   H23       1.0  0.00295  0.80792  0.53321  1.0000
  H   H24       1.0  0.99705  0.19208  0.46679  1.0000
  C   C1        1.0  0.49112  0.16226  0.07720  1.0000
  C   C2        1.0  0.50888  0.83774  0.92280  1.0000
  C   C3        1.0  0.55395  0.29374  0.94561  1.0000
  C   C4        1.0  0.44605  0.70626  0.05439  1.0000
  C   C5        1.0  0.95185  0.34599  0.06535  1.0000
  C   C6        1.0  0.04814  0.65401  0.93465  1.0000
  C   C7        1.0  0.35584  0.20084  0.04526  1.0000
  C   C8        1.0  0.64416  0.79916  0.95474  1.0000
  C   C9        1.0  0.33058  0.29196  0.96099  1.0000
  C   C10       1.0  0.66942  0.70804  0.03901  1.0000
  C   C11       1.0  0.53477  0.07456  0.17243  1.0000
  C   C12       1.0  0.46522  0.92544  0.82757  1.0000
  C   C13       1.0  0.43381  0.00402  0.21812  1.0000
  C   C14       1.0  0.56619  0.99598  0.78188  1.0000
  C   C15       1.0  0.98611  0.46902  0.24318  1.0000
  C   C16       1.0  0.01389  0.53098  0.75681  1.0000
  C   C17       1.0  0.12813  0.44620  0.28771  1.0000
  C   C18       1.0  0.87187  0.55380  0.71228  1.0000
  C   C19       1.0  0.17163  0.36615  0.21134  1.0000
  C   C20       1.0  0.82836  0.63385  0.78865  1.0000
  C   C21       1.0  0.68129  0.06517  0.22429  1.0000
  C   C22       1.0  0.31871  0.93483  0.77572  1.0000
  C   C23       1.0  0.92315  0.54771  0.31528  1.0000
  C   C24       1.0  0.07685  0.45229  0.68471  1.0000
  C   C25       1.0  0.77290  0.52089  0.29299  1.0000
  C   C26       1.0  0.22710  0.47911  0.70700  1.0000
  C   C27       1.0  0.00898  0.65151  0.40443  1.0000
  C   C28       1.0  0.99102  0.34849  0.59557  1.0000
  C   C29       1.0  0.48108  0.93108  0.31405  1.0000
  C   C30       1.0  0.51892  0.06892  0.68595  1.0000
  C   C31       1.0  0.72022  0.99091  0.32046  1.0000
  C   C32       1.0  0.27978  0.00910  0.67955  1.0000
  C   C33       1.0  0.71382  0.59817  0.35794  1.0000
  C   C34       1.0  0.28619  0.40183  0.64206  1.0000
  C   C35       1.0  0.94156  0.72468  0.46498  1.0000
  C   C36       1.0  0.05844  0.27533  0.53502  1.0000
  S   S1        1.0  0.84453  0.27370  0.91559  1.0000
  S   S2        1.0  0.15547  0.72630  0.08441  1.0000
  S   S3        1.0  0.67381  0.36772  0.87219  1.0000
  S   S4        1.0  0.32618  0.63228  0.12781  1.0000
  I   I1        1.0  0.46604  0.69918  0.54964  1.0000
  I   I2        1.0  0.53396  0.30082  0.45036  1.0000
  I   I3        1.0  0.89217  0.98384  0.68474  1.0000
  I   I4        1.0  0.10784  0.01616  0.31526  1.0000
  N   N1        1.0  0.59151  0.20942  0.02612  1.0000
  N   N2        1.0  0.40849  0.79057  0.97388  1.0000
  N   N3        1.0  0.89671  0.41772  0.13063  1.0000
  N   N4        1.0  0.10329  0.58228  0.86937  1.0000
  N   N5        1.0  0.08453  0.31524  0.09918  1.0000
  N   N6        1.0  0.91547  0.68476  0.90082  1.0000
  N   N7        1.0  0.42942  0.33962  0.91022  1.0000
  N   N8        1.0  0.57058  0.66038  0.08978  1.0000
  N   N9        1.0  0.62224  0.92551  0.36552  1.0000
  N   N10       1.0  0.37776  0.07450  0.63448  1.0000
  N   N11       1.0  0.79643  0.69902  0.44198  1.0000
  N   N12       1.0  0.20357  0.30099  0.55802  1.0000
