data_image0
_chemical_formula_structural       Ni2H12C12N16O8
_chemical_formula_sum              "Ni2 H12 C12 N16 O8"
_cell_length_a       8.2128
_cell_length_b       8.21281
_cell_length_c       9.50745
_cell_angle_alpha    66.0338
_cell_angle_beta     66.0337
_cell_angle_gamma    60.3181

_space_group_name_H-M_alt    "P 1"
_space_group_IT_number       1

loop_
  _space_group_symop_operation_xyz
  'x, y, z'

loop_
  _atom_site_type_symbol
  _atom_site_label
  _atom_site_symmetry_multiplicity
  _atom_site_fract_x
  _atom_site_fract_y
  _atom_site_fract_z
  _atom_site_occupancy
  Ni  Ni1       1.0  0.54271  0.45729  0.25000  1.0000
  Ni  Ni2       1.0  0.45729  0.54271  0.75000  1.0000
  H   H1        1.0  0.98580  0.09192  0.83826  1.0000
  H   H2        1.0  0.90808  0.01420  0.66174  1.0000
  H   H3        1.0  0.01420  0.90808  0.16174  1.0000
  H   H4        1.0  0.09192  0.98580  0.33826  1.0000
  H   H5        1.0  0.91479  0.32909  0.70760  1.0000
  H   H6        1.0  0.67091  0.08521  0.79241  1.0000
  H   H7        1.0  0.08521  0.67092  0.29240  1.0000
  H   H8        1.0  0.32909  0.91479  0.20760  1.0000
  H   H9        1.0  0.12120  0.52329  0.65075  1.0000
  H   H10       1.0  0.47671  0.87879  0.84925  1.0000
  H   H11       1.0  0.87879  0.47671  0.34925  1.0000
  H   H12       1.0  0.52329  0.12120  0.15075  1.0000
  C   C1        1.0  0.93896  0.24661  0.82625  1.0000
  C   C2        1.0  0.75339  0.06104  0.67375  1.0000
  C   C3        1.0  0.06104  0.75339  0.17375  1.0000
  C   C4        1.0  0.24661  0.93896  0.32625  1.0000
  C   C5        1.0  0.16161  0.41261  0.75600  1.0000
  C   C6        1.0  0.58739  0.83839  0.74400  1.0000
  C   C7        1.0  0.83839  0.58738  0.24400  1.0000
  C   C8        1.0  0.41261  0.16161  0.25600  1.0000
  C   C9        1.0  0.74910  0.30743  0.95583  1.0000
  C   C10       1.0  0.69257  0.25090  0.54418  1.0000
  C   C11       1.0  0.25088  0.69258  0.04415  1.0000
  C   C12       1.0  0.30742  0.74912  0.45585  1.0000
  N   N1        1.0  0.29587  0.38169  0.81846  1.0000
  N   N2        1.0  0.61831  0.70413  0.68153  1.0000
  N   N3        1.0  0.70413  0.61832  0.18153  1.0000
  N   N4        1.0  0.38169  0.29587  0.31846  1.0000
  N   N5        1.0  0.30835  0.21992  0.94249  1.0000
  N   N6        1.0  0.78008  0.69165  0.55751  1.0000
  N   N7        1.0  0.69165  0.78008  0.05751  1.0000
  N   N8        1.0  0.21993  0.30835  0.44249  1.0000
  N   N9        1.0  0.09362  0.27246  0.84018  1.0000
  N   N10       1.0  0.72755  0.90638  0.65982  1.0000
  N   N11       1.0  0.90638  0.72755  0.15982  1.0000
  N   N12       1.0  0.27246  0.09362  0.34018  1.0000
  N   N13       1.0  0.18725  0.15299  0.95610  1.0000
  N   N14       1.0  0.84701  0.81275  0.54390  1.0000
  N   N15       1.0  0.81275  0.84701  0.04390  1.0000
  N   N16       1.0  0.15300  0.18725  0.45610  1.0000
  O   O1        1.0  0.59604  0.34104  0.92748  1.0000
  O   O2        1.0  0.65897  0.40395  0.57252  1.0000
  O   O3        1.0  0.40397  0.65896  0.07252  1.0000
  O   O4        1.0  0.34104  0.59603  0.42748  1.0000
  O   O5        1.0  0.76264  0.30693  0.08401  1.0000
  O   O6        1.0  0.69306  0.23736  0.41599  1.0000
  O   O7        1.0  0.23735  0.69307  0.91600  1.0000
  O   O8        1.0  0.30693  0.76265  0.58400  1.0000
