data_image0
_chemical_formula_structural       Cd2H36C40N8O12
_chemical_formula_sum              "Cd2 H36 C40 N8 O12"
_cell_length_a       9.77094
_cell_length_b       11.7267
_cell_length_c       12.3694
_cell_angle_alpha    86.2284
_cell_angle_beta     66.7383
_cell_angle_gamma    65.3726

_space_group_name_H-M_alt    "P 1"
_space_group_IT_number       1

loop_
  _space_group_symop_operation_xyz
  'x, y, z'

loop_
  _atom_site_type_symbol
  _atom_site_label
  _atom_site_symmetry_multiplicity
  _atom_site_fract_x
  _atom_site_fract_y
  _atom_site_fract_z
  _atom_site_occupancy
  Cd  Cd1       1.0  0.54673  0.50006  0.49999  1.0000
  Cd  Cd2       1.0  0.33519  0.99989  1.00000  1.0000
  H   H1        1.0  0.38234  0.68272  0.76253  1.0000
  H   H2        1.0  0.82768  0.31734  0.23748  1.0000
  H   H3        1.0  0.15024  0.61733  0.12357  1.0000
  H   H4        1.0  0.89140  0.38274  0.87641  1.0000
  H   H5        1.0  0.11395  0.44016  0.05606  1.0000
  H   H6        1.0  0.61035  0.55977  0.94385  1.0000
  H   H7        1.0  0.38379  0.19502  0.61385  1.0000
  H   H8        1.0  0.19250  0.80492  0.38612  1.0000
  H   H9        1.0  0.20578  0.27061  0.49785  1.0000
  H   H10       1.0  0.97413  0.72937  0.50221  1.0000
  H   H11       1.0  0.13481  0.42965  0.55770  1.0000
  H   H12       1.0  0.12201  0.57032  0.44239  1.0000
  H   H13       1.0  0.09117  0.31626  0.65201  1.0000
  H   H14       1.0  0.05921  0.68367  0.34808  1.0000
  H   H15       1.0  0.04669  0.18195  0.26649  1.0000
  H   H16       1.0  0.49525  0.81801  0.73358  1.0000
  H   H17       1.0  0.00772  0.12337  0.62413  1.0000
  H   H18       1.0  0.75526  0.87660  0.37593  1.0000
  H   H19       1.0  0.29399  0.95113  0.55034  1.0000
  H   H20       1.0  0.79522  0.04898  0.44970  1.0000
  H   H21       1.0  0.71972  0.90034  0.04158  1.0000
  H   H22       1.0  0.66211  0.09958  0.95828  1.0000
  H   H23       1.0  0.90379  0.67239  0.02392  1.0000
  H   H24       1.0  0.60054  0.32755  0.97590  1.0000
  H   H25       1.0  0.74768  0.65163  0.14909  1.0000
  H   H26       1.0  0.54873  0.34831  0.85078  1.0000
  H   H27       1.0  0.83481  0.75134  0.16560  1.0000
  H   H28       1.0  0.75212  0.24860  0.83421  1.0000
  H   H29       1.0  0.49110  0.24699  0.41954  1.0000
  H   H30       1.0  0.15760  0.75308  0.58040  1.0000
  H   H31       1.0  0.63857  0.71235  0.99265  1.0000
  H   H32       1.0  0.34390  0.28756  0.00732  1.0000
  H   H33       1.0  0.19342  0.29924  0.83646  1.0000
  H   H34       1.0  0.32908  0.70071  0.16349  1.0000
  H   H35       1.0  0.56902  0.81766  0.32903  1.0000
  H   H36       1.0  0.71555  0.18242  0.67104  1.0000
  C   C1        1.0  0.31358  0.52655  0.78696  1.0000
  C   C2        1.0  0.62716  0.47349  0.21301  1.0000
  C   C3        1.0  0.32588  0.62948  0.82563  1.0000
  C   C4        1.0  0.78111  0.37059  0.17437  1.0000
  C   C5        1.0  0.26458  0.66138  0.94815  1.0000
  C   C6        1.0  0.87434  0.33869  0.05186  1.0000
  C   C7        1.0  0.19638  0.58916  0.02922  1.0000
  C   C8        1.0  0.81499  0.41092  0.97077  1.0000
  C   C9        1.0  0.17855  0.48848  0.99201  1.0000
  C   C10       1.0  0.65919  0.51151  0.00795  1.0000
  C   C11       1.0  0.23647  0.45917  0.86965  1.0000
  C   C12       1.0  0.56535  0.54085  0.13030  1.0000
  C   C13       1.0  0.31981  0.37763  0.68683  1.0000
  C   C14       1.0  0.38421  0.62233  0.31312  1.0000
  C   C15       1.0  0.34403  0.29229  0.58933  1.0000
  C   C16       1.0  0.22556  0.70764  0.41062  1.0000
  C   C17       1.0  0.18404  0.33022  0.57308  1.0000
  C   C18       1.0  0.08721  0.66973  0.42697  1.0000
  C   C19       1.0  0.26637  0.77656  0.99344  1.0000
  C   C20       1.0  0.03665  0.22349  0.00662  1.0000
  C   C21       1.0  0.25781  0.03394  0.28615  1.0000
  C   C22       1.0  0.57793  0.96605  0.71391  1.0000
  C   C23       1.0  0.09923  0.13152  0.32773  1.0000
  C   C24       1.0  0.55855  0.86848  0.67233  1.0000
  C   C25       1.0  0.01156  0.16318  0.45030  1.0000
  C   C26       1.0  0.62508  0.83682  0.54976  1.0000
  C   C27       1.0  0.08047  0.09548  0.52928  1.0000
  C   C28       1.0  0.70521  0.90455  0.47078  1.0000
  C   C29       1.0  0.23981  0.99974  0.48914  1.0000
  C   C30       1.0  0.72856  0.00033  0.51091  1.0000
  C   C31       1.0  0.32845  0.97132  0.36618  1.0000
  C   C32       1.0  0.66583  0.02876  0.63388  1.0000
  C   C33       1.0  0.50899  0.89871  0.18125  1.0000
  C   C34       1.0  0.58904  0.10129  0.81879  1.0000
  C   C35       1.0  0.66943  0.83048  0.07635  1.0000
  C   C36       1.0  0.57660  0.16947  0.92360  1.0000
  C   C37       1.0  0.79554  0.71995  0.10595  1.0000
  C   C38       1.0  0.62182  0.27998  0.89390  1.0000
  C   C39       1.0  0.84560  0.27456  0.49798  1.0000
  C   C40       1.0  0.61817  0.72545  0.50207  1.0000
  N   N1        1.0  0.36477  0.47208  0.67293  1.0000
  N   N2        1.0  0.50975  0.52795  0.32704  1.0000
  N   N3        1.0  0.24170  0.36675  0.80283  1.0000
  N   N4        1.0  0.41126  0.63324  0.19710  1.0000
  N   N5        1.0  0.37410  0.98462  0.17124  1.0000
  N   N6        1.0  0.53010  0.01535  0.82882  1.0000
  N   N7        1.0  0.48745  0.88706  0.29646  1.0000
  N   N8        1.0  0.67085  0.11302  0.70358  1.0000
  O   O1        1.0  0.47286  0.30030  0.48540  1.0000
  O   O2        1.0  0.25847  0.69966  0.51455  1.0000
  O   O3        1.0  0.31051  0.84686  0.91674  1.0000
  O   O4        1.0  0.07428  0.15318  0.08333  1.0000
  O   O5        1.0  0.22492  0.80001  0.10374  1.0000
  O   O6        1.0  0.12899  0.20003  0.89631  1.0000
  O   O7        1.0  0.63893  0.79564  0.98161  1.0000
  O   O8        1.0  0.41663  0.20438  0.01850  1.0000
  O   O9        1.0  0.80416  0.34522  0.42234  1.0000
  O   O10       1.0  0.57187  0.65473  0.57769  1.0000
  O   O11       1.0  0.75617  0.29460  0.60835  1.0000
  O   O12       1.0  0.65907  0.70544  0.39172  1.0000
