data_image0
_chemical_formula_structural       Tb2H24C24N6O22
_chemical_formula_sum              "Tb2 H24 C24 N6 O22"
_cell_length_a       7.85406
_cell_length_b       10.2982
_cell_length_c       10.296
_cell_angle_alpha    85.2593
_cell_angle_beta     82.222
_cell_angle_gamma    73.3556

_space_group_name_H-M_alt    "P 1"
_space_group_IT_number       1

loop_
  _space_group_symop_operation_xyz
  'x, y, z'

loop_
  _atom_site_type_symbol
  _atom_site_label
  _atom_site_symmetry_multiplicity
  _atom_site_fract_x
  _atom_site_fract_y
  _atom_site_fract_z
  _atom_site_occupancy
  Tb  Tb1       1.0  0.28792  0.97234  0.77750  1.0000
  Tb  Tb2       1.0  0.71207  0.02766  0.22250  1.0000
  H   H1        1.0  0.00738  0.05251  0.58273  1.0000
  H   H2        1.0  0.99262  0.94750  0.41730  1.0000
  H   H3        1.0  0.99606  0.93510  0.69093  1.0000
  H   H4        1.0  0.00394  0.06490  0.30908  1.0000
  H   H5        1.0  0.89833  0.98315  0.90903  1.0000
  H   H6        1.0  0.10167  0.01686  0.09097  1.0000
  H   H7        1.0  0.02279  0.83256  0.91868  1.0000
  H   H8        1.0  0.97721  0.16745  0.08133  1.0000
  H   H9        1.0  0.21934  0.30694  0.63184  1.0000
  H   H10       1.0  0.78067  0.69306  0.36816  1.0000
  H   H11       1.0  0.81106  0.46600  0.98276  1.0000
  H   H12       1.0  0.18894  0.53400  0.01723  1.0000
  H   H13       1.0  0.29225  0.71208  0.90853  1.0000
  H   H14       1.0  0.70776  0.28791  0.09147  1.0000
  H   H15       1.0  0.43262  0.65693  0.77881  1.0000
  H   H16       1.0  0.56738  0.34308  0.22119  1.0000
  H   H17       1.0  0.52524  0.61393  0.16560  1.0000
  H   H18       1.0  0.47475  0.38607  0.83440  1.0000
  H   H19       1.0  0.35199  0.34285  0.43086  1.0000
  H   H20       1.0  0.64802  0.65715  0.56914  1.0000
  H   H21       1.0  0.16608  0.76895  0.51023  1.0000
  H   H22       1.0  0.83393  0.23105  0.48977  1.0000
  H   H23       1.0  0.34784  0.81240  0.29537  1.0000
  H   H24       1.0  0.65216  0.18760  0.70463  1.0000
  C   C1        1.0  0.94440  0.55696  0.78385  1.0000
  C   C2        1.0  0.05560  0.44304  0.21615  1.0000
  C   C3        1.0  0.24061  0.55340  0.48706  1.0000
  C   C4        1.0  0.75939  0.44660  0.51293  1.0000
  C   C5        1.0  0.54350  0.92252  0.50460  1.0000
  C   C6        1.0  0.45651  0.07749  0.49540  1.0000
  C   C7        1.0  0.43698  0.97236  0.05176  1.0000
  C   C8        1.0  0.56303  0.02764  0.94825  1.0000
  C   C9        1.0  0.00735  0.29703  0.86244  1.0000
  C   C10       1.0  0.99264  0.70297  0.13756  1.0000
  C   C11       1.0  0.44276  0.60040  0.25717  1.0000
  C   C12       1.0  0.55724  0.39961  0.74283  1.0000
  C   C13       1.0  0.80328  0.63692  0.88122  1.0000
  C   C14       1.0  0.19673  0.36307  0.11879  1.0000
  C   C15       1.0  0.34536  0.44917  0.40742  1.0000
  C   C16       1.0  0.65464  0.55083  0.59258  1.0000
  C   C17       1.0  0.13352  0.52648  0.60781  1.0000
  C   C18       1.0  0.86648  0.47352  0.39219  1.0000
  C   C19       1.0  0.02283  0.41594  0.77688  1.0000
  C   C20       1.0  0.97718  0.58406  0.22311  1.0000
  C   C21       1.0  0.24162  0.68692  0.44709  1.0000
  C   C22       1.0  0.75839  0.31308  0.55291  1.0000
  C   C23       1.0  0.34217  0.71072  0.33038  1.0000
  C   C24       1.0  0.65784  0.28929  0.66962  1.0000
  N   N1        1.0  0.14063  0.40026  0.66407  1.0000
  N   N2        1.0  0.85938  0.59974  0.33592  1.0000
  N   N3        1.0  0.01484  0.62278  0.67860  1.0000
  N   N4        1.0  0.98516  0.37721  0.32139  1.0000
  N   N5        1.0  0.44491  0.47218  0.29620  1.0000
  N   N6        1.0  0.55509  0.52782  0.70379  1.0000
  O   O1        1.0  0.07578  0.96593  0.61941  1.0000
  O   O2        1.0  0.92422  0.03407  0.38059  1.0000
  O   O3        1.0  0.65709  0.87262  0.40891  1.0000
  O   O4        1.0  0.34290  0.12739  0.59110  1.0000
  O   O5        1.0  0.47486  0.95453  0.16831  1.0000
  O   O6        1.0  0.52513  0.04548  0.83169  1.0000
  O   O7        1.0  0.01179  0.92064  0.86904  1.0000
  O   O8        1.0  0.98821  0.07936  0.13096  1.0000
  O   O9        1.0  0.30422  0.94854  0.00999  1.0000
  O   O10       1.0  0.69578  0.05145  0.99002  1.0000
  O   O11       1.0  0.49402  0.85896  0.60593  1.0000
  O   O12       1.0  0.50598  0.14104  0.39408  1.0000
  O   O13       1.0  0.90670  0.31673  0.97194  1.0000
  O   O14       1.0  0.09330  0.68329  0.02805  1.0000
  O   O15       1.0  0.74343  0.76038  0.86766  1.0000
  O   O16       1.0  0.25656  0.23963  0.13233  1.0000
  O   O17       1.0  0.09747  0.18043  0.82469  1.0000
  O   O18       1.0  0.90252  0.81956  0.17530  1.0000
  O   O19       1.0  0.74448  0.56779  0.98526  1.0000
  O   O20       1.0  0.25551  0.43221  0.01474  1.0000
  O   O21       1.0  0.34920  0.74190  0.82559  1.0000
  O   O22       1.0  0.65080  0.25811  0.17441  1.0000
