data_image0
_chemical_formula_structural       Cd4H24C24N8O24
_chemical_formula_sum              "Cd4 H24 C24 N8 O24"
_cell_length_a       7.81163
_cell_length_b       7.86174
_cell_length_c       14.4723
_cell_angle_alpha    89.9999
_cell_angle_beta     90
_cell_angle_gamma    107.441

_space_group_name_H-M_alt    "P 1"
_space_group_IT_number       1

loop_
  _space_group_symop_operation_xyz
  'x, y, z'

loop_
  _atom_site_type_symbol
  _atom_site_label
  _atom_site_symmetry_multiplicity
  _atom_site_fract_x
  _atom_site_fract_y
  _atom_site_fract_z
  _atom_site_occupancy
  Cd  Cd1       1.0  0.28136  0.94785  0.65938  1.0000
  Cd  Cd2       1.0  0.71864  0.55215  0.15938  1.0000
  Cd  Cd3       1.0  0.71864  0.05215  0.34062  1.0000
  Cd  Cd4       1.0  0.28136  0.44785  0.84062  1.0000
  H   H1        1.0  0.65134  0.41302  0.62789  1.0000
  H   H2        1.0  0.34865  0.08698  0.12789  1.0000
  H   H3        1.0  0.34865  0.58698  0.37211  1.0000
  H   H4        1.0  0.65135  0.91302  0.87211  1.0000
  H   H5        1.0  0.90876  0.63268  0.71250  1.0000
  H   H6        1.0  0.09124  0.86731  0.21250  1.0000
  H   H7        1.0  0.09124  0.36732  0.28750  1.0000
  H   H8        1.0  0.90876  0.13268  0.78750  1.0000
  H   H9        1.0  0.40086  0.66549  0.57110  1.0000
  H   H10       1.0  0.59914  0.83451  0.07110  1.0000
  H   H11       1.0  0.59914  0.33451  0.42890  1.0000
  H   H12       1.0  0.40086  0.16549  0.92890  1.0000
  H   H13       1.0  0.56102  0.84978  0.57104  1.0000
  H   H14       1.0  0.43899  0.65022  0.07104  1.0000
  H   H15       1.0  0.43898  0.15022  0.42896  1.0000
  H   H16       1.0  0.56102  0.34978  0.92896  1.0000
  H   H17       1.0  0.65827  0.10730  0.70252  1.0000
  H   H18       1.0  0.34173  0.39270  0.20252  1.0000
  H   H19       1.0  0.34173  0.89270  0.29748  1.0000
  H   H20       1.0  0.65827  0.60731  0.79748  1.0000
  H   H21       1.0  0.53842  0.17495  0.78084  1.0000
  H   H22       1.0  0.46158  0.32505  0.28084  1.0000
  H   H23       1.0  0.46158  0.82505  0.21916  1.0000
  H   H24       1.0  0.53842  0.67495  0.71916  1.0000
  C   C1        1.0  0.00933  0.76533  0.49859  1.0000
  C   C2        1.0  0.99068  0.73467  0.99859  1.0000
  C   C3        1.0  0.99068  0.23467  0.50141  1.0000
  C   C4        1.0  0.00933  0.26533  0.00141  1.0000
  C   C5        1.0  0.86224  0.64925  0.45242  1.0000
  C   C6        1.0  0.13775  0.85074  0.95242  1.0000
  C   C7        1.0  0.13776  0.35074  0.54758  1.0000
  C   C8        1.0  0.86225  0.14926  0.04758  1.0000
  C   C9        1.0  0.75355  0.51526  0.59069  1.0000
  C   C10       1.0  0.24645  0.98474  0.09070  1.0000
  C   C11       1.0  0.24645  0.48474  0.40930  1.0000
  C   C12       1.0  0.75355  0.01527  0.90931  1.0000
  C   C13       1.0  0.89498  0.63591  0.63784  1.0000
  C   C14       1.0  0.10502  0.86408  0.13785  1.0000
  C   C15       1.0  0.10502  0.36409  0.36215  1.0000
  C   C16       1.0  0.89498  0.13592  0.86216  1.0000
  C   C17       1.0  0.16206  0.89473  0.44694  1.0000
  C   C18       1.0  0.83794  0.60527  0.94694  1.0000
  C   C19       1.0  0.83794  0.10527  0.55306  1.0000
  C   C20       1.0  0.16206  0.39472  0.05307  1.0000
  C   C21       1.0  0.82357  0.65843  0.35071  1.0000
  C   C22       1.0  0.17642  0.84157  0.85071  1.0000
  C   C23       1.0  0.17643  0.34156  0.64929  1.0000
  C   C24       1.0  0.82357  0.15844  0.14929  1.0000
  N   N1        1.0  0.02193  0.75694  0.59093  1.0000
  N   N2        1.0  0.97807  0.74306  0.09093  1.0000
  N   N3        1.0  0.97807  0.24306  0.40907  1.0000
  N   N4        1.0  0.02193  0.25695  0.90907  1.0000
  N   N5        1.0  0.73822  0.52104  0.49878  1.0000
  N   N6        1.0  0.26178  0.97895  0.99878  1.0000
  N   N7        1.0  0.26178  0.47896  0.50122  1.0000
  N   N8        1.0  0.73822  0.02105  0.00122  1.0000
  O   O1        1.0  0.28407  0.00431  0.49465  1.0000
  O   O2        1.0  0.71593  0.49569  0.99465  1.0000
  O   O3        1.0  0.71593  0.99568  0.50535  1.0000
  O   O4        1.0  0.28408  0.50432  0.00535  1.0000
  O   O5        1.0  0.46588  0.76861  0.61109  1.0000
  O   O6        1.0  0.53412  0.73139  0.11109  1.0000
  O   O7        1.0  0.53412  0.23139  0.38891  1.0000
  O   O8        1.0  0.46588  0.26861  0.88891  1.0000
  O   O9        1.0  0.15861  0.88172  0.36022  1.0000
  O   O10       1.0  0.84139  0.61828  0.86022  1.0000
  O   O11       1.0  0.84139  0.11828  0.63978  1.0000
  O   O12       1.0  0.15861  0.38172  0.13978  1.0000
  O   O13       1.0  0.54218  0.08075  0.73643  1.0000
  O   O14       1.0  0.45782  0.41925  0.23643  1.0000
  O   O15       1.0  0.45782  0.91925  0.26357  1.0000
  O   O16       1.0  0.54218  0.58075  0.76357  1.0000
  O   O17       1.0  0.86720  0.55033  0.29770  1.0000
  O   O18       1.0  0.13280  0.94967  0.79770  1.0000
  O   O19       1.0  0.13280  0.44967  0.70230  1.0000
  O   O20       1.0  0.86720  0.05033  0.20230  1.0000
  O   O21       1.0  0.73264  0.75952  0.32689  1.0000
  O   O22       1.0  0.26736  0.74047  0.82689  1.0000
  O   O23       1.0  0.26736  0.24048  0.67311  1.0000
  O   O24       1.0  0.73264  0.25952  0.17311  1.0000
