data_image0
_chemical_formula_structural       Sn2H32C16O10
_chemical_formula_sum              "Sn2 H32 C16 O10"
_cell_length_a       6.34262
_cell_length_b       8.91137
_cell_length_c       11.3625
_cell_angle_alpha    69.9072
_cell_angle_beta     73.775
_cell_angle_gamma    69.1513

_space_group_name_H-M_alt    "P 1"
_space_group_IT_number       1

loop_
  _space_group_symop_operation_xyz
  'x, y, z'

loop_
  _atom_site_type_symbol
  _atom_site_label
  _atom_site_symmetry_multiplicity
  _atom_site_fract_x
  _atom_site_fract_y
  _atom_site_fract_z
  _atom_site_occupancy
  Sn  Sn1       1.0  0.35217  0.24985  0.75008  1.0000
  Sn  Sn2       1.0  0.64783  0.75015  0.24992  1.0000
  H   H1        1.0  0.04663  0.50728  0.82589  1.0000
  H   H2        1.0  0.38007  0.99250  0.67413  1.0000
  H   H3        1.0  0.95337  0.49272  0.17411  1.0000
  H   H4        1.0  0.61993  0.00750  0.32587  1.0000
  H   H5        1.0  0.21011  0.37755  0.94665  1.0000
  H   H6        1.0  0.53468  0.12232  0.55346  1.0000
  H   H7        1.0  0.78989  0.62245  0.05335  1.0000
  H   H8        1.0  0.46533  0.87768  0.44655  1.0000
  H   H9        1.0  0.36072  0.64027  0.70839  1.0000
  H   H10       1.0  0.70970  0.85956  0.79160  1.0000
  H   H11       1.0  0.63929  0.35973  0.29161  1.0000
  H   H12       1.0  0.29030  0.14044  0.20840  1.0000
  H   H13       1.0  0.54113  0.50092  0.81653  1.0000
  H   H14       1.0  0.85885  0.99899  0.68341  1.0000
  H   H15       1.0  0.45887  0.49908  0.18347  1.0000
  H   H16       1.0  0.14115  0.00101  0.31659  1.0000
  H   H17       1.0  0.08639  0.76242  0.88414  1.0000
  H   H18       1.0  0.73325  0.73745  0.61588  1.0000
  H   H19       1.0  0.91361  0.23758  0.11586  1.0000
  H   H20       1.0  0.26674  0.26255  0.38412  1.0000
  H   H21       1.0  0.36522  0.77638  0.86657  1.0000
  H   H22       1.0  0.00850  0.72358  0.63328  1.0000
  H   H23       1.0  0.63478  0.22362  0.13343  1.0000
  H   H24       1.0  0.99150  0.27642  0.36672  1.0000
  H   H25       1.0  0.26632  0.62060  0.99367  1.0000
  H   H26       1.0  0.88081  0.87937  0.50627  1.0000
  H   H27       1.0  0.73369  0.37940  0.00633  1.0000
  H   H28       1.0  0.11919  0.12063  0.49373  1.0000
  H   H29       1.0  0.90832  0.31201  0.68064  1.0000
  H   H30       1.0  0.90069  0.18812  0.81947  1.0000
  H   H31       1.0  0.09168  0.68799  0.31936  1.0000
  H   H32       1.0  0.09931  0.81188  0.18053  1.0000
  C   C1        1.0  0.22227  0.44473  0.84497  1.0000
  C   C2        1.0  0.51221  0.05506  0.65512  1.0000
  C   C3        1.0  0.77773  0.55527  0.15503  1.0000
  C   C4        1.0  0.48779  0.94494  0.34488  1.0000
  C   C5        1.0  0.36044  0.56808  0.80898  1.0000
  C   C6        1.0  0.73777  0.93180  0.69099  1.0000
  C   C7        1.0  0.63956  0.43192  0.19102  1.0000
  C   C8        1.0  0.26223  0.06820  0.30901  1.0000
  C   C9        1.0  0.26447  0.68835  0.89269  1.0000
  C   C10       1.0  0.84578  0.81158  0.60724  1.0000
  C   C11       1.0  0.73554  0.31165  0.10731  1.0000
  C   C12       1.0  0.15421  0.18842  0.39276  1.0000
  C   C13       1.0  0.62124  0.47906  0.51490  1.0000
  C   C14       1.0  0.61519  0.02094  0.98504  1.0000
  C   C15       1.0  0.37876  0.52092  0.48512  1.0000
  C   C16       1.0  0.38479  0.97908  0.01495  1.0000
  O   O1        1.0  0.66669  0.36661  0.61671  1.0000
  O   O2        1.0  0.64982  0.13361  0.88331  1.0000
  O   O3        1.0  0.33331  0.63341  0.38327  1.0000
  O   O4        1.0  0.35015  0.86637  0.11670  1.0000
  O   O5        1.0  0.75633  0.55826  0.43704  1.0000
  O   O6        1.0  0.75183  0.94155  0.06274  1.0000
  O   O7        1.0  0.24368  0.44175  0.56295  1.0000
  O   O8        1.0  0.24817  0.05844  0.93727  1.0000
  O   O9        1.0  0.99954  0.25004  0.75007  1.0000
  O   O10       1.0  0.00046  0.74996  0.24993  1.0000
