data_image0
_chemical_formula_structural       Ni2H16C16N8O8
_chemical_formula_sum              "Ni2 H16 C16 N8 O8"
_cell_length_a       8.36432
_cell_length_b       8.36432
_cell_length_c       8.92446
_cell_angle_alpha    82.9464
_cell_angle_beta     82.9464
_cell_angle_gamma    74.2184

_space_group_name_H-M_alt    "P 1"
_space_group_IT_number       1

loop_
  _space_group_symop_operation_xyz
  'x, y, z'

loop_
  _atom_site_type_symbol
  _atom_site_label
  _atom_site_symmetry_multiplicity
  _atom_site_fract_x
  _atom_site_fract_y
  _atom_site_fract_z
  _atom_site_occupancy
  Ni  Ni1       1.0  0.15513  0.84486  0.75000  1.0000
  Ni  Ni2       1.0  0.84487  0.15513  0.25000  1.0000
  H   H1        1.0  0.37190  0.66991  0.03743  1.0000
  H   H2        1.0  0.33010  0.62810  0.46256  1.0000
  H   H3        1.0  0.62810  0.33009  0.96257  1.0000
  H   H4        1.0  0.66990  0.37190  0.53743  1.0000
  H   H5        1.0  0.69152  0.71105  0.04028  1.0000
  H   H6        1.0  0.28895  0.30848  0.45972  1.0000
  H   H7        1.0  0.30848  0.28895  0.95972  1.0000
  H   H8        1.0  0.71105  0.69152  0.54027  1.0000
  H   H9        1.0  0.49125  0.94832  0.63274  1.0000
  H   H10       1.0  0.05168  0.50875  0.86726  1.0000
  H   H11       1.0  0.50874  0.05168  0.36727  1.0000
  H   H12       1.0  0.94832  0.49126  0.13273  1.0000
  H   H13       1.0  0.74534  0.87415  0.77966  1.0000
  H   H14       1.0  0.12585  0.25466  0.72034  1.0000
  H   H15       1.0  0.25465  0.12586  0.22034  1.0000
  H   H16       1.0  0.87414  0.74535  0.27965  1.0000
  C   C1        1.0  0.44417  0.73353  0.95358  1.0000
  C   C2        1.0  0.26647  0.55583  0.54642  1.0000
  C   C3        1.0  0.55582  0.26648  0.04642  1.0000
  C   C4        1.0  0.73352  0.44418  0.45357  1.0000
  C   C5        1.0  0.60234  0.75245  0.95622  1.0000
  C   C6        1.0  0.24755  0.39766  0.54378  1.0000
  C   C7        1.0  0.39766  0.24756  0.04378  1.0000
  C   C8        1.0  0.75245  0.60234  0.45622  1.0000
  C   C9        1.0  0.98930  0.91494  0.03892  1.0000
  C   C10       1.0  0.08506  0.01070  0.46108  1.0000
  C   C11       1.0  0.01070  0.08505  0.96107  1.0000
  C   C12       1.0  0.91496  0.98930  0.53893  1.0000
  C   C13       1.0  0.50041  0.87698  0.74258  1.0000
  C   C14       1.0  0.12303  0.49959  0.75742  1.0000
  C   C15       1.0  0.49958  0.12303  0.25743  1.0000
  C   C16       1.0  0.87697  0.50042  0.24257  1.0000
  N   N1        1.0  0.38229  0.81179  0.81926  1.0000
  N   N2        1.0  0.18822  0.61771  0.68075  1.0000
  N   N3        1.0  0.61771  0.18821  0.18075  1.0000
  N   N4        1.0  0.81178  0.38229  0.31925  1.0000
  N   N5        1.0  0.63509  0.84328  0.82217  1.0000
  N   N6        1.0  0.15672  0.36491  0.67783  1.0000
  N   N7        1.0  0.36490  0.15673  0.17783  1.0000
  N   N8        1.0  0.84327  0.63510  0.32216  1.0000
  O   O1        1.0  0.04483  0.78718  0.96660  1.0000
  O   O2        1.0  0.21282  0.95517  0.53341  1.0000
  O   O3        1.0  0.95518  0.21282  0.03340  1.0000
  O   O4        1.0  0.78718  0.04481  0.46661  1.0000
  O   O5        1.0  0.91584  0.91682  0.17224  1.0000
  O   O6        1.0  0.08319  0.08415  0.32776  1.0000
  O   O7        1.0  0.08416  0.08316  0.82776  1.0000
  O   O8        1.0  0.91684  0.91584  0.67224  1.0000
