data_image0
_chemical_formula_structural       K2V2H30C24S4O16
_chemical_formula_sum              "K2 V2 H30 C24 S4 O16"
_cell_length_a       9.3123
_cell_length_b       10.6816
_cell_length_c       10.7688
_cell_angle_alpha    117.263
_cell_angle_beta     94.936
_cell_angle_gamma    110.379

_space_group_name_H-M_alt    "P 1"
_space_group_IT_number       1

loop_
  _space_group_symop_operation_xyz
  'x, y, z'

loop_
  _atom_site_type_symbol
  _atom_site_label
  _atom_site_symmetry_multiplicity
  _atom_site_fract_x
  _atom_site_fract_y
  _atom_site_fract_z
  _atom_site_occupancy
  K   K1        1.0  0.24198  0.49761  0.45285  1.0000
  K   K2        1.0  0.75809  0.50239  0.54715  1.0000
  V   V1        1.0  0.98881  0.05723  0.16059  1.0000
  V   V2        1.0  0.01121  0.94281  0.83941  1.0000
  H   H1        1.0  0.56945  0.11561  0.34894  1.0000
  H   H2        1.0  0.43054  0.88437  0.65106  1.0000
  H   H3        1.0  0.61949  0.89996  0.15927  1.0000
  H   H4        1.0  0.38050  0.10000  0.84072  1.0000
  H   H5        1.0  0.42878  0.72599  0.90753  1.0000
  H   H6        1.0  0.57119  0.27398  0.09247  1.0000
  H   H7        1.0  0.24617  0.01646  0.60549  1.0000
  H   H8        1.0  0.75383  0.98355  0.39450  1.0000
  H   H9        1.0  0.20246  0.06947  0.47477  1.0000
  H   H10       1.0  0.79755  0.93052  0.52521  1.0000
  H   H11       1.0  0.38882  0.06023  0.51000  1.0000
  H   H12       1.0  0.61118  0.93975  0.48999  1.0000
  H   H13       1.0  0.98515  0.79829  0.49807  1.0000
  H   H14       1.0  0.01486  0.20170  0.50194  1.0000
  H   H15       1.0  0.91014  0.62865  0.31624  1.0000
  H   H16       1.0  0.08986  0.37135  0.68377  1.0000
  H   H17       1.0  0.91853  0.81088  0.34222  1.0000
  H   H18       1.0  0.08148  0.18913  0.65780  1.0000
  H   H19       1.0  0.54670  0.66460  0.16492  1.0000
  H   H20       1.0  0.45329  0.33540  0.83508  1.0000
  H   H21       1.0  0.43304  0.67140  0.29496  1.0000
  H   H22       1.0  0.56696  0.32861  0.70503  1.0000
  H   H23       1.0  0.57963  0.59564  0.28424  1.0000
  H   H24       1.0  0.42036  0.40436  0.71575  1.0000
  H   H25       1.0  0.17174  0.54066  0.11419  1.0000
  H   H26       1.0  0.82826  0.45936  0.88583  1.0000
  H   H27       1.0  0.25643  0.52614  0.96627  1.0000
  H   H28       1.0  0.74355  0.47387  0.03374  1.0000
  H   H29       1.0  0.09654  0.35498  0.94333  1.0000
  H   H30       1.0  0.90343  0.64504  0.05669  1.0000
  C   C1        1.0  0.24308  0.95574  0.06327  1.0000
  C   C2        1.0  0.75692  0.04425  0.93673  1.0000
  C   C3        1.0  0.35040  0.05661  0.20620  1.0000
  C   C4        1.0  0.64959  0.94337  0.79380  1.0000
  C   C5        1.0  0.48556  0.03489  0.23892  1.0000
  C   C6        1.0  0.51443  0.96510  0.76107  1.0000
  C   C7        1.0  0.51292  0.91469  0.13377  1.0000
  C   C8        1.0  0.48707  0.08529  0.86622  1.0000
  C   C9        1.0  0.40699  0.81727  0.99305  1.0000
  C   C10       1.0  0.59301  0.18272  0.00694  1.0000
  C   C11       1.0  0.27188  0.83634  0.95445  1.0000
  C   C12       1.0  0.72812  0.16366  0.04555  1.0000
  C   C13       1.0  0.32928  0.18862  0.32452  1.0000
  C   C14       1.0  0.67073  0.81139  0.67547  1.0000
  C   C15       1.0  0.16879  0.73090  0.79864  1.0000
  C   C16       1.0  0.83120  0.26911  0.20137  1.0000
  C   C17       1.0  0.26173  0.00964  0.50310  1.0000
  C   C18       1.0  0.73828  0.99036  0.49689  1.0000
  C   C19       1.0  0.97565  0.75682  0.38246  1.0000
  C   C20       1.0  0.02436  0.24318  0.61755  1.0000
  C   C21       1.0  0.49062  0.60738  0.22223  1.0000
  C   C22       1.0  0.50937  0.39263  0.77776  1.0000
  C   C23       1.0  0.20208  0.46503  0.02108  1.0000
  C   C24       1.0  0.79790  0.53499  0.97893  1.0000
  S   S1        1.0  0.17233  0.80731  0.35805  1.0000
  S   S2        1.0  0.82767  0.19269  0.64196  1.0000
  S   S3        1.0  0.34135  0.41148  0.08801  1.0000
  S   S4        1.0  0.65864  0.58852  0.91198  1.0000
  O   O1        1.0  0.11260  0.97547  0.02925  1.0000
  O   O2        1.0  0.88740  0.02454  0.97075  1.0000
  O   O3        1.0  0.18384  0.17903  0.32231  1.0000
  O   O4        1.0  0.81616  0.82098  0.67769  1.0000
  O   O5        1.0  0.44651  0.30285  0.42805  1.0000
  O   O6        1.0  0.55350  0.69714  0.57194  1.0000
  O   O7        1.0  0.06693  0.76769  0.74712  1.0000
  O   O8        1.0  0.93307  0.23232  0.25288  1.0000
  O   O9        1.0  0.18233  0.60945  0.71776  1.0000
  O   O10       1.0  0.81767  0.39055  0.28223  1.0000
  O   O11       1.0  0.87858  0.92222  0.18711  1.0000
  O   O12       1.0  0.12144  0.07782  0.81289  1.0000
  O   O13       1.0  0.24953  0.72800  0.40776  1.0000
  O   O14       1.0  0.75047  0.27200  0.59225  1.0000
  O   O15       1.0  0.26282  0.34145  0.17245  1.0000
  O   O16       1.0  0.73719  0.65854  0.82754  1.0000
