data_image0
_chemical_formula_structural       Cu4H36C28I4N4
_chemical_formula_sum              "Cu4 H36 C28 I4 N4"
_cell_length_a       8.01459
_cell_length_b       10.2509
_cell_length_c       10.2509
_cell_angle_alpha    94.8636
_cell_angle_beta     94.135
_cell_angle_gamma    94.136

_space_group_name_H-M_alt    "P 1"
_space_group_IT_number       1

loop_
  _space_group_symop_operation_xyz
  'x, y, z'

loop_
  _atom_site_type_symbol
  _atom_site_label
  _atom_site_symmetry_multiplicity
  _atom_site_fract_x
  _atom_site_fract_y
  _atom_site_fract_z
  _atom_site_occupancy
  Cu  Cu1       1.0  0.88311  0.88735  0.01328  1.0000
  Cu  Cu2       1.0  0.61689  0.98673  0.11264  1.0000
  Cu  Cu3       1.0  0.11689  0.11264  0.98672  1.0000
  Cu  Cu4       1.0  0.38311  0.01327  0.88736  1.0000
  H   H1        1.0  0.20495  0.76324  0.04551  1.0000
  H   H2        1.0  0.29504  0.95449  0.23676  1.0000
  H   H3        1.0  0.79505  0.23676  0.95448  1.0000
  H   H4        1.0  0.70495  0.04551  0.76324  1.0000
  H   H5        1.0  0.10849  0.42120  0.25430  1.0000
  H   H6        1.0  0.39149  0.74571  0.57880  1.0000
  H   H7        1.0  0.89151  0.57879  0.74570  1.0000
  H   H8        1.0  0.60850  0.25430  0.42120  1.0000
  H   H9        1.0  0.71975  0.66718  0.13869  1.0000
  H   H10       1.0  0.78024  0.86130  0.33282  1.0000
  H   H11       1.0  0.28026  0.33282  0.86130  1.0000
  H   H12       1.0  0.21975  0.13869  0.66719  1.0000
  H   H13       1.0  0.44067  0.64765  0.21444  1.0000
  H   H14       1.0  0.05932  0.78556  0.35235  1.0000
  H   H15       1.0  0.55933  0.35235  0.78555  1.0000
  H   H16       1.0  0.94067  0.21444  0.64765  1.0000
  H   H17       1.0  0.38903  0.47469  0.19912  1.0000
  H   H18       1.0  0.11096  0.80088  0.52531  1.0000
  H   H19       1.0  0.61097  0.52531  0.80088  1.0000
  H   H20       1.0  0.88904  0.19912  0.47469  1.0000
  H   H21       1.0  0.40996  0.56128  0.05737  1.0000
  H   H22       1.0  0.09004  0.94263  0.43872  1.0000
  H   H23       1.0  0.59004  0.43872  0.94263  1.0000
  H   H24       1.0  0.90996  0.05737  0.56128  1.0000
  H   H25       1.0  0.67867  0.39477  0.19263  1.0000
  H   H26       1.0  0.82132  0.80738  0.60522  1.0000
  H   H27       1.0  0.32134  0.60523  0.80738  1.0000
  H   H28       1.0  0.17868  0.19262  0.39478  1.0000
  H   H29       1.0  0.83216  0.37095  0.31887  1.0000
  H   H30       1.0  0.66782  0.68114  0.62905  1.0000
  H   H31       1.0  0.16785  0.62905  0.68113  1.0000
  H   H32       1.0  0.33218  0.31887  0.37096  1.0000
  H   H33       1.0  0.70051  0.50344  0.33746  1.0000
  H   H34       1.0  0.79948  0.66255  0.49656  1.0000
  H   H35       1.0  0.29950  0.49656  0.66254  1.0000
  H   H36       1.0  0.20052  0.33746  0.50345  1.0000
  C   C1        1.0  0.12131  0.69630  0.09296  1.0000
  C   C2        1.0  0.37869  0.90704  0.30369  1.0000
  C   C3        1.0  0.87869  0.30370  0.90704  1.0000
  C   C4        1.0  0.62131  0.09295  0.69630  1.0000
  C   C5        1.0  0.18207  0.58936  0.15226  1.0000
  C   C6        1.0  0.31792  0.84774  0.41063  1.0000
  C   C7        1.0  0.81794  0.41063  0.84774  1.0000
  C   C8        1.0  0.68207  0.15226  0.58937  1.0000
  C   C9        1.0  0.06666  0.50705  0.20898  1.0000
  C   C10       1.0  0.43334  0.79103  0.49295  1.0000
  C   C11       1.0  0.93335  0.49295  0.79101  1.0000
  C   C12       1.0  0.56666  0.20898  0.50705  1.0000
  C   C13       1.0  0.89748  0.53281  0.20712  1.0000
  C   C14       1.0  0.60252  0.79289  0.46719  1.0000
  C   C15       1.0  0.10253  0.46719  0.79288  1.0000
  C   C16       1.0  0.39748  0.20711  0.53281  1.0000
  C   C17       1.0  0.85010  0.64237  0.14549  1.0000
  C   C18       1.0  0.64989  0.85451  0.35763  1.0000
  C   C19       1.0  0.14991  0.35763  0.85450  1.0000
  C   C20       1.0  0.35010  0.14549  0.64238  1.0000
  C   C21       1.0  0.36487  0.56647  0.15623  1.0000
  C   C22       1.0  0.13512  0.84377  0.43353  1.0000
  C   C23       1.0  0.63513  0.43353  0.84377  1.0000
  C   C24       1.0  0.86488  0.15623  0.56647  1.0000
  C   C25       1.0  0.77105  0.44644  0.26762  1.0000
  C   C26       1.0  0.72894  0.73239  0.55356  1.0000
  C   C27       1.0  0.22896  0.55356  0.73238  1.0000
  C   C28       1.0  0.27106  0.26761  0.44644  1.0000
  I   I1        1.0  0.57345  0.81314  0.90943  1.0000
  I   I2        1.0  0.92655  0.09057  0.18686  1.0000
  I   I3        1.0  0.42655  0.18686  0.09057  1.0000
  I   I4        1.0  0.07345  0.90943  0.81314  1.0000
  N   N1        1.0  0.95909  0.72283  0.08981  1.0000
  N   N2        1.0  0.54090  0.91019  0.27717  1.0000
  N   N3        1.0  0.04091  0.27717  0.91019  1.0000
  N   N4        1.0  0.45910  0.08980  0.72283  1.0000
