data_image0
_chemical_formula_structural       CuH18PdC18N6O2
_chemical_formula_sum              "Cu1 H18 Pd1 C18 N6 O2"
_cell_length_a       8.10795
_cell_length_b       8.34095
_cell_length_c       8.92547
_cell_angle_alpha    116.908
_cell_angle_beta     107.322
_cell_angle_gamma    95.5609

_space_group_name_H-M_alt    "P 1"
_space_group_IT_number       1

loop_
  _space_group_symop_operation_xyz
  'x, y, z'

loop_
  _atom_site_type_symbol
  _atom_site_label
  _atom_site_symmetry_multiplicity
  _atom_site_fract_x
  _atom_site_fract_y
  _atom_site_fract_z
  _atom_site_occupancy
  Cu  Cu1       1.0  1.00000  0.50000  1.00000  1.0000
  H   H1        1.0  0.29027  0.83100  0.09180  1.0000
  H   H2        1.0  0.70973  0.16900  0.90820  1.0000
  H   H3        1.0  0.00417  0.14679  0.96784  1.0000
  H   H4        1.0  0.99583  0.85321  0.03216  1.0000
  H   H5        1.0  0.10160  0.86246  0.81084  1.0000
  H   H6        1.0  0.89841  0.13754  0.18916  1.0000
  H   H7        1.0  0.25256  0.85351  0.59658  1.0000
  H   H8        1.0  0.74744  0.14649  0.40342  1.0000
  H   H9        1.0  0.29557  0.12678  0.55355  1.0000
  H   H10       1.0  0.70443  0.87322  0.44645  1.0000
  H   H11       1.0  0.06120  0.46573  0.65324  1.0000
  H   H12       1.0  0.93880  0.53426  0.34676  1.0000
  H   H13       1.0  0.24830  0.40704  0.59881  1.0000
  H   H14       1.0  0.75170  0.59296  0.40119  1.0000
  H   H15       1.0  0.43671  0.60203  0.94909  1.0000
  H   H16       1.0  0.56329  0.39797  0.05091  1.0000
  H   H17       1.0  0.36153  0.72197  0.83172  1.0000
  H   H18       1.0  0.63847  0.27803  0.16828  1.0000
  Pd  Pd1       1.0  0.50000  0.50000  0.50000  1.0000
  C   C1        1.0  0.41950  0.22420  0.34337  1.0000
  C   C2        1.0  0.58050  0.77580  0.65664  1.0000
  C   C3        1.0  0.30211  0.52129  0.32346  1.0000
  C   C4        1.0  0.69789  0.47871  0.67654  1.0000
  C   C5        1.0  0.06770  0.13459  0.87307  1.0000
  C   C6        1.0  0.93230  0.86541  0.12693  1.0000
  C   C7        1.0  0.12244  0.97701  0.78484  1.0000
  C   C8        1.0  0.87757  0.02300  0.21516  1.0000
  C   C9        1.0  0.20587  0.97300  0.66793  1.0000
  C   C10       1.0  0.79413  0.02700  0.33208  1.0000
  C   C11       1.0  0.23054  0.12587  0.64392  1.0000
  C   C12       1.0  0.76946  0.87414  0.35608  1.0000
  C   C13       1.0  0.16897  0.27931  0.73355  1.0000
  C   C14       1.0  0.83103  0.72069  0.26645  1.0000
  C   C15       1.0  0.19263  0.44256  0.70455  1.0000
  C   C16       1.0  0.80737  0.55745  0.29545  1.0000
  C   C17       1.0  0.31561  0.62616  0.87398  1.0000
  C   C18       1.0  0.68439  0.37384  0.12602  1.0000
  N   N1        1.0  0.37503  0.06099  0.25462  1.0000
  N   N2        1.0  0.62497  0.93901  0.74538  1.0000
  N   N3        1.0  0.18391  0.53055  0.21701  1.0000
  N   N4        1.0  0.81609  0.46945  0.78298  1.0000
  N   N5        1.0  0.08857  0.28098  0.84716  1.0000
  N   N6        1.0  0.91143  0.71902  0.15284  1.0000
  O   O1        1.0  0.21718  0.70477  0.98454  1.0000
  O   O2        1.0  0.78282  0.29523  0.01546  1.0000
