data_image0
_chemical_formula_structural       Cd2H36Pd2C36N12O4
_chemical_formula_sum              "Cd2 H36 Pd2 C36 N12 O4"
_cell_length_a       8.89862
_cell_length_b       10.4393
_cell_length_c       10.6917
_cell_angle_alpha    93.888
_cell_angle_beta     90.0001
_cell_angle_gamma    90.0002

_space_group_name_H-M_alt    "P 1"
_space_group_IT_number       1

loop_
  _space_group_symop_operation_xyz
  'x, y, z'

loop_
  _atom_site_type_symbol
  _atom_site_label
  _atom_site_symmetry_multiplicity
  _atom_site_fract_x
  _atom_site_fract_y
  _atom_site_fract_z
  _atom_site_occupancy
  Cd  Cd1       1.0  0.00000  0.50000  0.50000  1.0000
  Cd  Cd2       1.0  0.50000  1.00000  0.00000  1.0000
  H   H1        1.0  0.06954  0.55780  0.24078  1.0000
  H   H2        1.0  0.56954  0.94220  0.25922  1.0000
  H   H3        1.0  0.93046  0.44220  0.75922  1.0000
  H   H4        1.0  0.43046  0.05780  0.74078  1.0000
  H   H5        1.0  0.84205  0.51849  0.12822  1.0000
  H   H6        1.0  0.34205  0.98151  0.37179  1.0000
  H   H7        1.0  0.15795  0.48151  0.87178  1.0000
  H   H8        1.0  0.65795  0.01849  0.62822  1.0000
  H   H9        1.0  0.83570  0.66342  0.22750  1.0000
  H   H10       1.0  0.33570  0.83658  0.27251  1.0000
  H   H11       1.0  0.16430  0.33658  0.77251  1.0000
  H   H12       1.0  0.66430  0.16342  0.72749  1.0000
  H   H13       1.0  0.61284  0.49887  0.23057  1.0000
  H   H14       1.0  0.11284  0.00113  0.26943  1.0000
  H   H15       1.0  0.38716  0.50113  0.76943  1.0000
  H   H16       1.0  0.88717  0.99887  0.73057  1.0000
  H   H17       1.0  0.73558  0.40550  0.31723  1.0000
  H   H18       1.0  0.23558  0.09450  0.18277  1.0000
  H   H19       1.0  0.26442  0.59450  0.68277  1.0000
  H   H20       1.0  0.76442  0.90551  0.81723  1.0000
  H   H21       1.0  0.45165  0.64104  0.33758  1.0000
  H   H22       1.0  0.95165  0.85896  0.16242  1.0000
  H   H23       1.0  0.54835  0.35896  0.66241  1.0000
  H   H24       1.0  0.04835  0.14104  0.83758  1.0000
  H   H25       1.0  0.38039  0.77237  0.53246  1.0000
  H   H26       1.0  0.88038  0.72763  0.96754  1.0000
  H   H27       1.0  0.61962  0.22763  0.46753  1.0000
  H   H28       1.0  0.11962  0.27237  0.03247  1.0000
  H   H29       1.0  0.55775  0.77918  0.71713  1.0000
  H   H30       1.0  0.05775  0.72082  0.78287  1.0000
  H   H31       1.0  0.44225  0.22082  0.28287  1.0000
  H   H32       1.0  0.94225  0.27918  0.21713  1.0000
  H   H33       1.0  0.79826  0.65642  0.69492  1.0000
  H   H34       1.0  0.29825  0.84357  0.80508  1.0000
  H   H35       1.0  0.20174  0.34358  0.30508  1.0000
  H   H36       1.0  0.70175  0.15642  0.19492  1.0000
  Pd  Pd1       1.0  1.00000  0.00000  0.50000  1.0000
  Pd  Pd2       1.0  0.50000  0.50000  0.00000  1.0000
  C   C1        1.0  0.17543  0.05927  0.60197  1.0000
  C   C2        1.0  0.67543  0.44074  0.89804  1.0000
  C   C3        1.0  0.82457  0.94073  0.39803  1.0000
  C   C4        1.0  0.32456  0.55927  0.10197  1.0000
  C   C5        1.0  0.05923  0.81984  0.51674  1.0000
  C   C6        1.0  0.55924  0.68016  0.98327  1.0000
  C   C7        1.0  0.94076  0.18016  0.48326  1.0000
  C   C8        1.0  0.44077  0.31984  0.01673  1.0000
  C   C9        1.0  0.84320  0.55796  0.22646  1.0000
  C   C10       1.0  0.34319  0.94204  0.27354  1.0000
  C   C11       1.0  0.15681  0.44204  0.77354  1.0000
  C   C12       1.0  0.65681  0.05796  0.72646  1.0000
  C   C13       1.0  0.70903  0.50438  0.29527  1.0000
  C   C14       1.0  0.20903  0.99562  0.20473  1.0000
  C   C15       1.0  0.29097  0.49562  0.70473  1.0000
  C   C16       1.0  0.79098  0.00438  0.79527  1.0000
  C   C17       1.0  0.66327  0.58186  0.41255  1.0000
  C   C18       1.0  0.16327  0.91814  0.08745  1.0000
  C   C19       1.0  0.33673  0.41814  0.58745  1.0000
  C   C20       1.0  0.83673  0.08186  0.91255  1.0000
  C   C21       1.0  0.52630  0.64785  0.41853  1.0000
  C   C22       1.0  0.02630  0.85215  0.08147  1.0000
  C   C23       1.0  0.47370  0.35215  0.58147  1.0000
  C   C24       1.0  0.97370  0.14785  0.91852  1.0000
  C   C25       1.0  0.48673  0.72054  0.52739  1.0000
  C   C26       1.0  0.98673  0.77946  0.97262  1.0000
  C   C27       1.0  0.51327  0.27946  0.47261  1.0000
  C   C28       1.0  0.01328  0.22054  0.02739  1.0000
  C   C29       1.0  0.58438  0.72462  0.62957  1.0000
  C   C30       1.0  0.08438  0.77538  0.87043  1.0000
  C   C31       1.0  0.41562  0.27539  0.37043  1.0000
  C   C32       1.0  0.91562  0.22461  0.12957  1.0000
  C   C33       1.0  0.71846  0.65674  0.61756  1.0000
  C   C34       1.0  0.21845  0.84326  0.88244  1.0000
  C   C35       1.0  0.28154  0.34326  0.38244  1.0000
  C   C36       1.0  0.78154  0.15674  0.11756  1.0000
  N   N1        1.0  0.27819  0.09266  0.66435  1.0000
  N   N2        1.0  0.77820  0.40734  0.83564  1.0000
  N   N3        1.0  0.72181  0.90734  0.33565  1.0000
  N   N4        1.0  0.22181  0.59266  0.16435  1.0000
  N   N5        1.0  0.09098  0.71220  0.52744  1.0000
  N   N6        1.0  0.59097  0.78780  0.97256  1.0000
  N   N7        1.0  0.90902  0.28780  0.47256  1.0000
  N   N8        1.0  0.40902  0.21219  0.02744  1.0000
  N   N9        1.0  0.75777  0.58724  0.51191  1.0000
  N   N10       1.0  0.25777  0.91275  0.98809  1.0000
  N   N11       1.0  0.24223  0.41276  0.48809  1.0000
  N   N12       1.0  0.74223  0.08724  0.01191  1.0000
  O   O1        1.0  0.98046  0.52030  0.28445  1.0000
  O   O2        1.0  0.48046  0.97970  0.21556  1.0000
  O   O3        1.0  0.01954  0.47970  0.71555  1.0000
  O   O4        1.0  0.51954  0.02030  0.78445  1.0000
