data_image0
_chemical_formula_structural       ZnH18PdC18N6O2
_chemical_formula_sum              "Zn1 H18 Pd1 C18 N6 O2"
_cell_length_a       8.15586
_cell_length_b       8.19312
_cell_length_c       9.00023
_cell_angle_alpha    115.783
_cell_angle_beta     105.176
_cell_angle_gamma    99.6117

_space_group_name_H-M_alt    "P 1"
_space_group_IT_number       1

loop_
  _space_group_symop_operation_xyz
  'x, y, z'

loop_
  _atom_site_type_symbol
  _atom_site_label
  _atom_site_symmetry_multiplicity
  _atom_site_fract_x
  _atom_site_fract_y
  _atom_site_fract_z
  _atom_site_occupancy
  Zn  Zn1       1.0  0.50000  1.00000  0.50000  1.0000
  H   H1        1.0  0.22037  0.67376  0.39952  1.0000
  H   H2        1.0  0.77964  0.32624  0.60048  1.0000
  H   H3        1.0  0.50863  0.38305  0.54469  1.0000
  H   H4        1.0  0.49138  0.61695  0.45530  1.0000
  H   H5        1.0  0.41679  0.66569  0.70268  1.0000
  H   H6        1.0  0.58321  0.33431  0.29732  1.0000
  H   H7        1.0  0.25787  0.65833  0.90821  1.0000
  H   H8        1.0  0.74213  0.34167  0.09179  1.0000
  H   H9        1.0  0.20078  0.37055  0.94155  1.0000
  H   H10       1.0  0.79923  0.62945  0.05845  1.0000
  H   H11       1.0  0.42309  0.03542  0.84128  1.0000
  H   H12       1.0  0.57690  0.96458  0.15871  1.0000
  H   H13       1.0  0.22523  0.07245  0.87598  1.0000
  H   H14       1.0  0.77477  0.92755  0.12402  1.0000
  H   H15       1.0  0.12757  0.75558  0.63496  1.0000
  H   H16       1.0  0.87243  0.24442  0.36504  1.0000
  H   H17       1.0  0.06677  0.88918  0.53020  1.0000
  H   H18       1.0  0.93323  0.11082  0.46980  1.0000
  Pd  Pd1       1.0  0.00000  0.00000  0.00000  1.0000
  C   C1        1.0  0.44154  0.38753  0.63552  1.0000
  C   C2        1.0  0.55846  0.61247  0.36448  1.0000
  C   C3        1.0  0.38963  0.54436  0.72387  1.0000
  C   C4        1.0  0.61037  0.45564  0.27613  1.0000
  C   C5        1.0  0.30198  0.53967  0.83636  1.0000
  C   C6        1.0  0.69802  0.46033  0.16364  1.0000
  C   C7        1.0  0.27000  0.37888  0.85543  1.0000
  C   C8        1.0  0.73000  0.62112  0.14457  1.0000
  C   C9        1.0  0.32888  0.22748  0.76491  1.0000
  C   C10       1.0  0.67112  0.77252  0.23509  1.0000
  C   C11       1.0  0.29489  0.05232  0.78291  1.0000
  C   C12       1.0  0.70511  0.94768  0.21709  1.0000
  C   C13       1.0  0.18179  0.86753  0.60774  1.0000
  C   C14       1.0  0.81821  0.13247  0.39226  1.0000
  C   C15       1.0  0.19691  0.98288  0.16958  1.0000
  C   C16       1.0  0.80308  0.01712  0.83040  1.0000
  C   C17       1.0  0.07638  0.28090  0.15853  1.0000
  C   C18       1.0  0.92361  0.71910  0.84147  1.0000
  N   N1        1.0  0.41451  0.23334  0.65610  1.0000
  N   N2        1.0  0.58548  0.76666  0.34390  1.0000
  N   N3        1.0  0.31390  0.97228  0.26906  1.0000
  N   N4        1.0  0.68611  0.02772  0.73095  1.0000
  N   N5        1.0  0.11983  0.44739  0.24804  1.0000
  N   N6        1.0  0.88017  0.55261  0.75196  1.0000
  O   O1        1.0  0.29150  0.80526  0.50726  1.0000
  O   O2        1.0  0.70850  0.19474  0.49274  1.0000
