data_image0
_chemical_formula_structural       Cu2H28Pd2C20N16
_chemical_formula_sum              "Cu2 H28 Pd2 C20 N16"
_cell_length_a       8.89865
_cell_length_b       8.97867
_cell_length_c       10.9285
_cell_angle_alpha    73.9937
_cell_angle_beta     72.5752
_cell_angle_gamma    62.6254

_space_group_name_H-M_alt    "P 1"
_space_group_IT_number       1

loop_
  _space_group_symop_operation_xyz
  'x, y, z'

loop_
  _atom_site_type_symbol
  _atom_site_label
  _atom_site_symmetry_multiplicity
  _atom_site_fract_x
  _atom_site_fract_y
  _atom_site_fract_z
  _atom_site_occupancy
  Cu  Cu1       1.0  0.85294  0.13629  0.76015  1.0000
  Cu  Cu2       1.0  0.14706  0.86371  0.23985  1.0000
  H   H1        1.0  0.70071  0.46502  0.73311  1.0000
  H   H2        1.0  0.29930  0.53498  0.26689  1.0000
  H   H3        1.0  0.60745  0.38693  0.87488  1.0000
  H   H4        1.0  0.39256  0.61307  0.12512  1.0000
  H   H5        1.0  0.89394  0.35584  0.55605  1.0000
  H   H6        1.0  0.10606  0.64416  0.44395  1.0000
  H   H7        1.0  0.07741  0.24644  0.60648  1.0000
  H   H8        1.0  0.92259  0.75356  0.39352  1.0000
  H   H9        1.0  0.01811  0.15672  0.52817  1.0000
  H   H10       1.0  0.98190  0.84328  0.47182  1.0000
  H   H11       1.0  0.62072  0.11919  0.97113  1.0000
  H   H12       1.0  0.37928  0.88081  0.02887  1.0000
  H   H13       1.0  0.70637  0.94332  0.90768  1.0000
  H   H14       1.0  0.29364  0.05668  0.09232  1.0000
  H   H15       1.0  0.81857  0.97165  0.98746  1.0000
  H   H16       1.0  0.18143  0.02835  0.01254  1.0000
  H   H17       1.0  0.21802  0.98169  0.80339  1.0000
  H   H18       1.0  0.78198  0.01831  0.19661  1.0000
  H   H19       1.0  0.47532  0.70700  0.79654  1.0000
  H   H20       1.0  0.52469  0.29299  0.20345  1.0000
  H   H21       1.0  0.18025  0.51560  0.68178  1.0000
  H   H22       1.0  0.81975  0.48440  0.31823  1.0000
  H   H23       1.0  0.93133  0.79701  0.70249  1.0000
  H   H24       1.0  0.06867  0.20299  0.29751  1.0000
  H   H25       1.0  0.45598  0.31493  0.76354  1.0000
  H   H26       1.0  0.54402  0.68507  0.23646  1.0000
  H   H27       1.0  0.55145  0.40760  0.61703  1.0000
  H   H28       1.0  0.44855  0.59240  0.38297  1.0000
  Pd  Pd1       1.0  0.99999  0.50001  0.00001  1.0000
  Pd  Pd2       1.0  0.50000  1.00000  0.50000  1.0000
  C   C1        1.0  0.24199  0.36416  0.02480  1.0000
  C   C2        1.0  0.75800  0.63586  0.97521  1.0000
  C   C3        1.0  0.99996  0.32265  0.92536  1.0000
  C   C4        1.0  0.00003  0.67735  0.07464  1.0000
  C   C5        1.0  0.64972  0.03775  0.57890  1.0000
  C   C6        1.0  0.35028  0.96225  0.42110  1.0000
  C   C7        1.0  0.35125  0.24729  0.48412  1.0000
  C   C8        1.0  0.64875  0.75271  0.51589  1.0000
  C   C9        1.0  0.21562  0.87399  0.77764  1.0000
  C   C10       1.0  0.78438  0.12601  0.22236  1.0000
  C   C11       1.0  0.35964  0.71923  0.77212  1.0000
  C   C12       1.0  0.64036  0.28076  0.22788  1.0000
  C   C13       1.0  0.35185  0.58610  0.73555  1.0000
  C   C14       1.0  0.64815  0.41390  0.26445  1.0000
  C   C15       1.0  0.19466  0.61490  0.71002  1.0000
  C   C16       1.0  0.80534  0.38510  0.28999  1.0000
  C   C17       1.0  0.05576  0.77174  0.72006  1.0000
  C   C18       1.0  0.94423  0.22826  0.27994  1.0000
  C   C19       1.0  0.50208  0.41606  0.72107  1.0000
  C   C20       1.0  0.49792  0.58393  0.27893  1.0000
  N   N1        1.0  0.38565  0.28752  0.03878  1.0000
  N   N2        1.0  0.61434  0.71249  0.96121  1.0000
  N   N3        1.0  0.99506  0.21762  0.88408  1.0000
  N   N4        1.0  0.00494  0.78241  0.11593  1.0000
  N   N5        1.0  0.73957  0.06232  0.62319  1.0000
  N   N6        1.0  0.26043  0.93767  0.37681  1.0000
  N   N7        1.0  0.26308  0.39366  0.47444  1.0000
  N   N8        1.0  0.73692  0.60634  0.52556  1.0000
  N   N9        1.0  0.06576  0.90103  0.75190  1.0000
  N   N10       1.0  0.93424  0.09897  0.24810  1.0000
  N   N11       1.0  0.64836  0.37826  0.77798  1.0000
  N   N12       1.0  0.35164  0.62173  0.22202  1.0000
  N   N13       1.0  0.97311  0.23600  0.59469  1.0000
  N   N14       1.0  0.02690  0.76400  0.40531  1.0000
  N   N15       1.0  0.73445  0.03342  0.92486  1.0000
  N   N16       1.0  0.26555  0.96658  0.07513  1.0000
