data_image0
_chemical_formula_structural       Fe2H20C16O8
_chemical_formula_sum              "Fe2 H20 C16 O8"
_cell_length_a       5.17146
_cell_length_b       6.56208
_cell_length_c       13.1388
_cell_angle_alpha    99.7557
_cell_angle_beta     99.1446
_cell_angle_gamma    103.382

_space_group_name_H-M_alt    "P 1"
_space_group_IT_number       1

loop_
  _space_group_symop_operation_xyz
  'x, y, z'

loop_
  _atom_site_type_symbol
  _atom_site_label
  _atom_site_symmetry_multiplicity
  _atom_site_fract_x
  _atom_site_fract_y
  _atom_site_fract_z
  _atom_site_occupancy
  Fe  Fe1       1.0  0.26398  0.11216  0.04386  1.0000
  Fe  Fe2       1.0  0.73630  0.88782  0.95616  1.0000
  H   H1        1.0  0.41531  0.52627  0.82082  1.0000
  H   H2        1.0  0.58468  0.47380  0.17915  1.0000
  H   H3        1.0  0.02531  0.65172  0.65668  1.0000
  H   H4        1.0  0.97467  0.34843  0.34331  1.0000
  H   H5        1.0  0.36242  0.80476  0.71623  1.0000
  H   H6        1.0  0.63760  0.19523  0.28377  1.0000
  H   H7        1.0  0.34039  0.57963  0.53893  1.0000
  H   H8        1.0  0.65968  0.42035  0.46107  1.0000
  H   H9        1.0  0.54931  0.51571  0.64204  1.0000
  H   H10       1.0  0.45054  0.48423  0.35800  1.0000
  H   H11       1.0  0.26141  0.17919  0.52334  1.0000
  H   H12       1.0  0.73861  0.82081  0.47667  1.0000
  H   H13       1.0  0.96495  0.26476  0.53193  1.0000
  H   H14       1.0  0.03497  0.73516  0.46798  1.0000
  H   H15       1.0  0.33642  0.16310  0.71259  1.0000
  H   H16       1.0  0.66352  0.83714  0.28745  1.0000
  H   H17       1.0  0.00373  0.01053  0.64840  1.0000
  H   H18       1.0  0.99630  0.98945  0.35162  1.0000
  H   H19       1.0  0.81783  0.31234  0.71835  1.0000
  H   H20       1.0  0.18207  0.68770  0.28164  1.0000
  C   C1        1.0  0.21153  0.53745  0.78752  1.0000
  C   C2        1.0  0.78844  0.46254  0.21244  1.0000
  C   C3        1.0  0.22944  0.64064  0.69086  1.0000
  C   C4        1.0  0.77045  0.35939  0.30913  1.0000
  C   C5        1.0  0.33682  0.50793  0.60868  1.0000
  C   C6        1.0  0.66308  0.49205  0.39132  1.0000
  C   C7        1.0  0.16812  0.27400  0.57684  1.0000
  C   C8        1.0  0.83180  0.72598  0.42314  1.0000
  C   C9        1.0  0.13730  0.17452  0.67291  1.0000
  C   C10       1.0  0.86256  0.82549  0.32709  1.0000
  C   C11       1.0  0.02386  0.30914  0.75418  1.0000
  C   C12       1.0  0.97601  0.69082  0.24581  1.0000
  C   C13       1.0  0.12596  0.68403  0.86968  1.0000
  C   C14       1.0  0.87418  0.31594  0.13033  1.0000
  C   C15       1.0  0.00284  0.20136  0.84702  1.0000
  C   C16       1.0  0.99715  0.79861  0.15298  1.0000
  O   O1        1.0  0.31317  0.83582  0.93541  1.0000
  O   O2        1.0  0.68710  0.16411  0.06461  1.0000
  O   O3        1.0  0.87620  0.66345  0.86824  1.0000
  O   O4        1.0  0.12395  0.33654  0.13183  1.0000
  O   O5        1.0  0.21286  0.24879  0.92090  1.0000
  O   O6        1.0  0.78719  0.75112  0.07908  1.0000
  O   O7        1.0  0.78246  0.06272  0.84484  1.0000
  O   O8        1.0  0.21753  0.93727  0.15516  1.0000
