data_image0
_chemical_formula_structural       Cu4H4C4N28
_chemical_formula_sum              "Cu4 H4 C4 N28"
_cell_length_a       6.81198
_cell_length_b       7.48579
_cell_length_c       9.61684
_cell_angle_alpha    89.9999
_cell_angle_beta     90.0016
_cell_angle_gamma    89.9994

_space_group_name_H-M_alt    "P 1"
_space_group_IT_number       1

loop_
  _space_group_symop_operation_xyz
  'x, y, z'

loop_
  _atom_site_type_symbol
  _atom_site_label
  _atom_site_symmetry_multiplicity
  _atom_site_fract_x
  _atom_site_fract_y
  _atom_site_fract_z
  _atom_site_occupancy
  Cu  Cu1       1.0  0.09242  0.76788  0.51951  1.0000
  Cu  Cu2       1.0  0.40758  0.23212  0.01951  1.0000
  Cu  Cu3       1.0  0.59242  0.73211  0.48048  1.0000
  Cu  Cu4       1.0  0.90758  0.26788  0.98048  1.0000
  H   H1        1.0  0.46956  0.97544  0.73153  1.0000
  H   H2        1.0  0.03044  0.02457  0.23153  1.0000
  H   H3        1.0  0.96957  0.52455  0.26848  1.0000
  H   H4        1.0  0.53044  0.47543  0.76846  1.0000
  C   C1        1.0  0.31919  0.00087  0.76260  1.0000
  C   C2        1.0  0.18081  0.99914  0.26260  1.0000
  C   C3        1.0  0.81920  0.49913  0.23740  1.0000
  C   C4        1.0  0.68082  0.50086  0.73740  1.0000
  N   N1        1.0  0.15874  0.93704  0.69919  1.0000
  N   N2        1.0  0.34126  0.06296  0.19919  1.0000
  N   N3        1.0  0.65874  0.56296  0.30081  1.0000
  N   N4        1.0  0.84126  0.43704  0.80081  1.0000
  N   N5        1.0  0.33459  0.60981  0.53220  1.0000
  N   N6        1.0  0.16540  0.39020  0.03220  1.0000
  N   N7        1.0  0.83459  0.89018  0.46779  1.0000
  N   N8        1.0  0.66541  0.10982  0.96780  1.0000
  N   N9        1.0  0.93019  0.59995  0.62892  1.0000
  N   N10       1.0  0.56982  0.40005  0.12891  1.0000
  N   N11       1.0  0.43018  0.90005  0.37108  1.0000
  N   N12       1.0  0.06982  0.09994  0.87108  1.0000
  N   N13       1.0  0.23331  0.89656  0.37008  1.0000
  N   N14       1.0  0.26668  0.10345  0.87008  1.0000
  N   N15       1.0  0.73332  0.60345  0.62993  1.0000
  N   N16       1.0  0.76669  0.39655  0.12993  1.0000
  N   N17       1.0  0.00353  0.00080  0.76907  1.0000
  N   N18       1.0  0.49647  0.99920  0.26907  1.0000
  N   N19       1.0  0.50353  0.49920  0.23092  1.0000
  N   N20       1.0  0.99647  0.50080  0.73093  1.0000
  N   N21       1.0  0.32189  0.44766  0.52064  1.0000
  N   N22       1.0  0.17809  0.55233  0.02064  1.0000
  N   N23       1.0  0.82190  0.05231  0.47936  1.0000
  N   N24       1.0  0.67810  0.94769  0.97936  1.0000
  N   N25       1.0  0.31186  0.29376  0.51198  1.0000
  N   N26       1.0  0.18812  0.70624  0.01199  1.0000
  N   N27       1.0  0.81187  0.20622  0.48802  1.0000
  N   N28       1.0  0.68813  0.79377  0.98801  1.0000
