data_image0
_chemical_formula_structural       Nd4H20C32N4O28
_chemical_formula_sum              "Nd4 H20 C32 N4 O28"
_cell_length_a       7.4036
_cell_length_b       10.5011
_cell_length_c       14.9538
_cell_angle_alpha    77.1686
_cell_angle_beta     75.6731
_cell_angle_gamma    69.3469

_space_group_name_H-M_alt    "P 1"
_space_group_IT_number       1

loop_
  _space_group_symop_operation_xyz
  'x, y, z'

loop_
  _atom_site_type_symbol
  _atom_site_label
  _atom_site_symmetry_multiplicity
  _atom_site_fract_x
  _atom_site_fract_y
  _atom_site_fract_z
  _atom_site_occupancy
  Nd  Nd1       1.0  0.37983  0.56950  0.88201  1.0000
  Nd  Nd2       1.0  0.83154  0.93030  0.61799  1.0000
  Nd  Nd3       1.0  0.62017  0.43051  0.11798  1.0000
  Nd  Nd4       1.0  0.16846  0.06969  0.38201  1.0000
  H   H1        1.0  0.13428  0.12353  0.73835  1.0000
  H   H2        1.0  0.99645  0.37623  0.76156  1.0000
  H   H3        1.0  0.86570  0.87648  0.26165  1.0000
  H   H4        1.0  0.00355  0.62376  0.23845  1.0000
  H   H5        1.0  0.17115  0.21908  0.87363  1.0000
  H   H6        1.0  0.26438  0.28072  0.62632  1.0000
  H   H7        1.0  0.82883  0.78093  0.12638  1.0000
  H   H8        1.0  0.73563  0.71927  0.37369  1.0000
  H   H9        1.0  0.27090  0.05587  0.01398  1.0000
  H   H10       1.0  0.34114  0.44405  0.48600  1.0000
  H   H11       1.0  0.72909  0.94413  0.98602  1.0000
  H   H12       1.0  0.65887  0.55595  0.51401  1.0000
  H   H13       1.0  0.57259  0.40670  0.70304  1.0000
  H   H14       1.0  0.68265  0.09326  0.79700  1.0000
  H   H15       1.0  0.42741  0.59331  0.29696  1.0000
  H   H16       1.0  0.31736  0.90673  0.20299  1.0000
  H   H17       1.0  0.55596  0.32261  0.80635  1.0000
  H   H18       1.0  0.68512  0.17727  0.69367  1.0000
  H   H19       1.0  0.44406  0.67740  0.19364  1.0000
  H   H20       1.0  0.31488  0.82272  0.30633  1.0000
  C   C1        1.0  0.21543  0.84569  0.73166  1.0000
  C   C2        1.0  0.79259  0.65399  0.76819  1.0000
  C   C3        1.0  0.78458  0.15432  0.26834  1.0000
  C   C4        1.0  0.20742  0.34601  0.23182  1.0000
  C   C5        1.0  0.23531  0.91501  0.80564  1.0000
  C   C6        1.0  0.95601  0.58477  0.69430  1.0000
  C   C7        1.0  0.76469  0.08500  0.19436  1.0000
  C   C8        1.0  0.04401  0.41522  0.30570  1.0000
  C   C9        1.0  0.18549  0.05736  0.80025  1.0000
  C   C10       1.0  0.04339  0.44242  0.69969  1.0000
  C   C11       1.0  0.81450  0.94265  0.19975  1.0000
  C   C12       1.0  0.95662  0.55757  0.30032  1.0000
  C   C13       1.0  0.20293  0.10917  0.87485  1.0000
  C   C14       1.0  0.18732  0.39062  0.62511  1.0000
  C   C15       1.0  0.79705  0.89084  0.12515  1.0000
  C   C16       1.0  0.81269  0.60937  0.37490  1.0000
  C   C17       1.0  0.26182  0.01810  0.95357  1.0000
  C   C18       1.0  0.23382  0.48175  0.54642  1.0000
  C   C19       1.0  0.73817  0.98191  0.04643  1.0000
  C   C20       1.0  0.76619  0.51824  0.45359  1.0000
  C   C21       1.0  0.30765  0.87708  0.95360  1.0000
  C   C22       1.0  0.13855  0.62279  0.54641  1.0000
  C   C23       1.0  0.69234  0.12293  0.04639  1.0000
  C   C24       1.0  0.86145  0.37720  0.45360  1.0000
  C   C25       1.0  0.36670  0.76978  0.03560  1.0000
  C   C26       1.0  0.17238  0.73014  0.46445  1.0000
  C   C27       1.0  0.63329  0.23023  0.96440  1.0000
  C   C28       1.0  0.82762  0.26985  0.53555  1.0000
  C   C29       1.0  0.95367  0.57537  0.01018  1.0000
  C   C30       1.0  0.53944  0.92473  0.48962  1.0000
  C   C31       1.0  0.04633  0.42464  0.98981  1.0000
  C   C32       1.0  0.46054  0.07527  0.51038  1.0000
  N   N1        1.0  0.29798  0.82809  0.88008  1.0000
  N   N2        1.0  0.00621  0.67175  0.61990  1.0000
  N   N3        1.0  0.70201  0.17192  0.11991  1.0000
  N   N4        1.0  0.99380  0.32825  0.38011  1.0000
  O   O1        1.0  0.28318  0.71466  0.74209  1.0000
  O   O2        1.0  0.73957  0.78503  0.75775  1.0000
  O   O3        1.0  0.71685  0.28535  0.25789  1.0000
  O   O4        1.0  0.26043  0.21496  0.24226  1.0000
  O   O5        1.0  0.12800  0.92108  0.66652  1.0000
  O   O6        1.0  0.71545  0.57856  0.83326  1.0000
  O   O7        1.0  0.87200  0.07893  0.33347  1.0000
  O   O8        1.0  0.28456  0.42144  0.16675  1.0000
  O   O9        1.0  0.41908  0.64267  0.02320  1.0000
  O   O10       1.0  0.08526  0.85724  0.47686  1.0000
  O   O11       1.0  0.58091  0.35733  0.97680  1.0000
  O   O12       1.0  0.91474  0.14274  0.52314  1.0000
  O   O13       1.0  0.36058  0.80768  0.11049  1.0000
  O   O14       1.0  0.27909  0.69228  0.38955  1.0000
  O   O15       1.0  0.63943  0.19232  0.88951  1.0000
  O   O16       1.0  0.72092  0.30771  0.61045  1.0000
  O   O17       1.0  0.04394  0.65986  0.96680  1.0000
  O   O18       1.0  0.67103  0.84017  0.53289  1.0000
  O   O19       1.0  0.95605  0.34015  0.03319  1.0000
  O   O20       1.0  0.32895  0.15982  0.46711  1.0000
  O   O21       1.0  0.79506  0.60180  0.06916  1.0000
  O   O22       1.0  0.46640  0.89848  0.43049  1.0000
  O   O23       1.0  0.20494  0.39821  0.93083  1.0000
  O   O24       1.0  0.53359  0.10151  0.56951  1.0000
  O   O25       1.0  0.50028  0.41273  0.76731  1.0000
  O   O26       1.0  0.68094  0.08709  0.73272  1.0000
  O   O27       1.0  0.49972  0.58728  0.23268  1.0000
  O   O28       1.0  0.31906  0.91290  0.26728  1.0000
