data_image0
_chemical_formula_structural       K4H34C30S2N2O12
_chemical_formula_sum              "K4 H34 C30 S2 N2 O12"
_cell_length_a       5.88588
_cell_length_b       8.78766
_cell_length_c       17.8362
_cell_angle_alpha    82.2396
_cell_angle_beta     77.8077
_cell_angle_gamma    75.1903

_space_group_name_H-M_alt    "P 1"
_space_group_IT_number       1

loop_
  _space_group_symop_operation_xyz
  'x, y, z'

loop_
  _atom_site_type_symbol
  _atom_site_label
  _atom_site_symmetry_multiplicity
  _atom_site_fract_x
  _atom_site_fract_y
  _atom_site_fract_z
  _atom_site_occupancy
  K   K1        1.0  0.85327  0.86426  0.40908  1.0000
  K   K2        1.0  0.14677  0.13575  0.59093  1.0000
  K   K3        1.0  0.96062  0.35530  0.41349  1.0000
  K   K4        1.0  0.03938  0.64470  0.58651  1.0000
  H   H1        1.0  0.27264  0.94303  0.46678  1.0000
  H   H2        1.0  0.72736  0.05698  0.53322  1.0000
  H   H3        1.0  0.31938  0.04271  0.38841  1.0000
  H   H4        1.0  0.68062  0.95729  0.61160  1.0000
  H   H5        1.0  0.49832  0.70538  0.48459  1.0000
  H   H6        1.0  0.50170  0.29464  0.51541  1.0000
  H   H7        1.0  0.50036  0.74434  0.57148  1.0000
  H   H8        1.0  0.49964  0.25566  0.42852  1.0000
  H   H9        1.0  0.55750  0.35132  0.91759  1.0000
  H   H10       1.0  0.44249  0.64867  0.08241  1.0000
  H   H11       1.0  0.27273  0.31161  0.95826  1.0000
  H   H12       1.0  0.72725  0.68838  0.04174  1.0000
  H   H13       1.0  0.52111  0.15491  0.93186  1.0000
  H   H14       1.0  0.47887  0.84508  0.06814  1.0000
  H   H15       1.0  0.14913  0.41704  0.23657  1.0000
  H   H16       1.0  0.85087  0.58296  0.76342  1.0000
  H   H17       1.0  0.82700  0.87787  0.13866  1.0000
  H   H18       1.0  0.17301  0.12213  0.86133  1.0000
  H   H19       1.0  0.08667  0.99473  0.19508  1.0000
  H   H20       1.0  0.91333  0.00529  0.80491  1.0000
  H   H21       1.0  0.86244  0.58707  0.15830  1.0000
  H   H22       1.0  0.13756  0.41293  0.84169  1.0000
  H   H23       1.0  0.64135  0.51630  0.28260  1.0000
  H   H24       1.0  0.35864  0.48369  0.71739  1.0000
  H   H25       1.0  0.88970  0.34389  0.13991  1.0000
  H   H26       1.0  0.11030  0.65610  0.86009  1.0000
  H   H27       1.0  0.38852  0.82420  0.26792  1.0000
  H   H28       1.0  0.61147  0.17581  0.73208  1.0000
  H   H29       1.0  0.32052  0.10466  0.21913  1.0000
  H   H30       1.0  0.67947  0.89534  0.78088  1.0000
  H   H31       1.0  0.24680  0.12599  0.08527  1.0000
  H   H32       1.0  0.75319  0.87401  0.91474  1.0000
  H   H33       1.0  0.80772  0.37313  0.00614  1.0000
  H   H34       1.0  0.19227  0.62685  0.99386  1.0000
  C   C1        1.0  0.40430  0.58086  0.38803  1.0000
  C   C2        1.0  0.59571  0.41917  0.61197  1.0000
  C   C3        1.0  0.45726  0.50889  0.30952  1.0000
  C   C4        1.0  0.54275  0.49111  0.69049  1.0000
  C   C5        1.0  0.28787  0.60805  0.25793  1.0000
  C   C6        1.0  0.71214  0.39194  0.74207  1.0000
  C   C7        1.0  0.27213  0.77154  0.24430  1.0000
  C   C8        1.0  0.72786  0.22846  0.75570  1.0000
  C   C9        1.0  0.10576  0.86748  0.20227  1.0000
  C   C10       1.0  0.89425  0.13253  0.79772  1.0000
  C   C11       1.0  0.95775  0.80193  0.17092  1.0000
  C   C12       1.0  0.04225  0.19807  0.82908  1.0000
  C   C13       1.0  0.97769  0.63930  0.18231  1.0000
  C   C14       1.0  0.02231  0.36070  0.81768  1.0000
  C   C15       1.0  0.13988  0.54321  0.22608  1.0000
  C   C16       1.0  0.86013  0.45679  0.77392  1.0000
  C   C17       1.0  0.60768  0.22376  0.18717  1.0000
  C   C18       1.0  0.39232  0.77622  0.81284  1.0000
  C   C19       1.0  0.74663  0.29867  0.12770  1.0000
  C   C20       1.0  0.25337  0.70132  0.87230  1.0000
  C   C21       1.0  0.70170  0.31301  0.05280  1.0000
  C   C22       1.0  0.29830  0.68697  0.94720  1.0000
  C   C23       1.0  0.52040  0.25302  0.03637  1.0000
  C   C24       1.0  0.47958  0.74697  0.96363  1.0000
  C   C25       1.0  0.38726  0.17486  0.09706  1.0000
  C   C26       1.0  0.61274  0.82513  0.90295  1.0000
  C   C27       1.0  0.42824  0.16112  0.17179  1.0000
  C   C28       1.0  0.57175  0.83887  0.82822  1.0000
  C   C29       1.0  0.46616  0.26942  0.95677  1.0000
  C   C30       1.0  0.53383  0.73057  0.04323  1.0000
  S   S1        1.0  0.63729  0.21415  0.28518  1.0000
  S   S2        1.0  0.36271  0.78585  0.71483  1.0000
  N   N1        1.0  0.43654  0.34417  0.32837  1.0000
  N   N2        1.0  0.56346  0.65583  0.67163  1.0000
  O   O1        1.0  0.58100  0.61277  0.40859  1.0000
  O   O2        1.0  0.41905  0.38724  0.59140  1.0000
  O   O3        1.0  0.19442  0.59849  0.42724  1.0000
  O   O4        1.0  0.80559  0.40149  0.57277  1.0000
  O   O5        1.0  0.88278  0.22719  0.28328  1.0000
  O   O6        1.0  0.11721  0.77282  0.71672  1.0000
  O   O7        1.0  0.58607  0.06106  0.31964  1.0000
  O   O8        1.0  0.41393  0.93894  0.68036  1.0000
  O   O9        1.0  0.18898  0.02229  0.43066  1.0000
  O   O10       1.0  0.81103  0.97771  0.56934  1.0000
  O   O11       1.0  0.45281  0.79131  0.52149  1.0000
  O   O12       1.0  0.54721  0.20870  0.47850  1.0000
