data_image0
_chemical_formula_structural       Zn2H18C26N4O10
_chemical_formula_sum              "Zn2 H18 C26 N4 O10"
_cell_length_a       7.73954
_cell_length_b       8.47456
_cell_length_c       11.1685
_cell_angle_alpha    107.579
_cell_angle_beta     93.9192
_cell_angle_gamma    101.6

_space_group_name_H-M_alt    "P 1"
_space_group_IT_number       1

loop_
  _space_group_symop_operation_xyz
  'x, y, z'

loop_
  _atom_site_type_symbol
  _atom_site_label
  _atom_site_symmetry_multiplicity
  _atom_site_fract_x
  _atom_site_fract_y
  _atom_site_fract_z
  _atom_site_occupancy
  Zn  Zn1       1.0  0.54127  0.91391  0.84809  1.0000
  Zn  Zn2       1.0  0.45873  0.08609  0.15191  1.0000
  H   H1        1.0  0.00981  0.81969  0.99289  1.0000
  H   H2        1.0  0.99020  0.18031  0.00711  1.0000
  H   H3        1.0  0.21374  0.66481  0.06673  1.0000
  H   H4        1.0  0.78627  0.33519  0.93327  1.0000
  H   H5        1.0  0.64935  0.69450  0.24564  1.0000
  H   H6        1.0  0.35065  0.30550  0.75436  1.0000
  H   H7        1.0  0.85654  0.77981  0.76226  1.0000
  H   H8        1.0  0.14346  0.22019  0.23773  1.0000
  H   H9        1.0  0.07569  0.82717  0.61868  1.0000
  H   H10       1.0  0.92431  0.17283  0.38131  1.0000
  H   H11       1.0  0.75157  0.12818  0.49515  1.0000
  H   H12       1.0  0.24842  0.87182  0.50485  1.0000
  H   H13       1.0  0.55130  0.07253  0.64852  1.0000
  H   H14       1.0  0.44870  0.92747  0.35148  1.0000
  H   H15       1.0  0.76955  0.61245  0.41031  1.0000
  H   H16       1.0  0.23045  0.38755  0.58969  1.0000
  H   H17       1.0  0.96213  0.52690  0.39295  1.0000
  H   H18       1.0  0.03787  0.47310  0.60705  1.0000
  C   C1        1.0  0.69041  0.86142  0.07425  1.0000
  C   C2        1.0  0.30959  0.13858  0.92575  1.0000
  C   C3        1.0  0.81241  0.76769  0.11338  1.0000
  C   C4        1.0  0.18759  0.23231  0.88662  1.0000
  C   C5        1.0  0.97526  0.75729  0.06294  1.0000
  C   C6        1.0  0.02474  0.24271  0.93706  1.0000
  C   C7        1.0  0.08791  0.67302  0.10355  1.0000
  C   C8        1.0  0.91210  0.32698  0.89645  1.0000
  C   C9        1.0  0.77239  0.69137  0.20406  1.0000
  C   C10       1.0  0.22761  0.30863  0.79594  1.0000
  C   C11       1.0  0.83987  0.85768  0.70231  1.0000
  C   C12       1.0  0.16013  0.14232  0.29769  1.0000
  C   C13       1.0  0.96093  0.88377  0.62012  1.0000
  C   C14       1.0  0.03906  0.11623  0.37987  1.0000
  C   C15       1.0  0.78213  0.04969  0.55138  1.0000
  C   C16       1.0  0.21787  0.95031  0.44861  1.0000
  C   C17       1.0  0.66820  0.01910  0.63663  1.0000
  C   C18       1.0  0.33179  0.98090  0.36337  1.0000
  C   C19       1.0  0.93520  0.98318  0.54304  1.0000
  C   C20       1.0  0.06480  0.01682  0.45696  1.0000
  C   C21       1.0  0.83769  0.53165  0.34256  1.0000
  C   C22       1.0  0.16230  0.46835  0.65744  1.0000
  C   C23       1.0  0.04640  0.58900  0.19598  1.0000
  C   C24       1.0  0.95360  0.41099  0.80402  1.0000
  C   C25       1.0  0.71618  0.35268  0.29368  1.0000
  C   C26       1.0  0.28381  0.64732  0.70632  1.0000
  N   N1        1.0  0.88349  0.60878  0.24536  1.0000
  N   N2        1.0  0.11651  0.39122  0.75464  1.0000
  N   N3        1.0  0.69690  0.92636  0.71179  1.0000
  N   N4        1.0  0.30310  0.07365  0.28820  1.0000
  O   O1        1.0  0.72598  0.91887  0.98286  1.0000
  O   O2        1.0  0.27401  0.08112  0.01714  1.0000
  O   O3        1.0  0.55753  0.88357  0.13488  1.0000
  O   O4        1.0  0.44247  0.11643  0.86512  1.0000
  O   O5        1.0  0.63335  0.30347  0.17965  1.0000
  O   O6        1.0  0.36665  0.69653  0.82035  1.0000
  O   O7        1.0  0.70051  0.26860  0.36862  1.0000
  O   O8        1.0  0.29949  0.73140  0.63137  1.0000
  O   O9        1.0  0.13803  0.50491  0.23480  1.0000
  O   O10       1.0  0.86196  0.49508  0.76520  1.0000
