data_image0
_chemical_formula_structural       Hg4H18C38S8N26
_chemical_formula_sum              "Hg4 H18 C38 S8 N26"
_cell_length_a       6.78983
_cell_length_b       9.07994
_cell_length_c       22.4623
_cell_angle_alpha    88.1441
_cell_angle_beta     85.0134
_cell_angle_gamma    68.0379

_space_group_name_H-M_alt    "P 1"
_space_group_IT_number       1

loop_
  _space_group_symop_operation_xyz
  'x, y, z'

loop_
  _atom_site_type_symbol
  _atom_site_label
  _atom_site_symmetry_multiplicity
  _atom_site_fract_x
  _atom_site_fract_y
  _atom_site_fract_z
  _atom_site_occupancy
  Hg  Hg1       1.0  0.94035  0.65405  0.11714  1.0000
  Hg  Hg2       1.0  0.40579  0.65438  0.38298  1.0000
  Hg  Hg3       1.0  0.05967  0.34596  0.88286  1.0000
  Hg  Hg4       1.0  0.59421  0.34562  0.61701  1.0000
  H   H1        1.0  0.75123  0.95224  0.02044  1.0000
  H   H2        1.0  0.29625  0.95295  0.47963  1.0000
  H   H3        1.0  0.24878  0.04777  0.97955  1.0000
  H   H4        1.0  0.70376  0.04705  0.52037  1.0000
  H   H5        1.0  0.72104  0.23583  0.00139  1.0000
  H   H6        1.0  0.04253  0.23648  0.49861  1.0000
  H   H7        1.0  0.27895  0.76420  0.99861  1.0000
  H   H8        1.0  0.95745  0.76351  0.50140  1.0000
  H   H9        1.0  0.80245  0.37875  0.08530  1.0000
  H   H10       1.0  0.81842  0.37914  0.41462  1.0000
  H   H11       1.0  0.19754  0.62127  0.91470  1.0000
  H   H12       1.0  0.18155  0.62084  0.58539  1.0000
  H   H13       1.0  0.13391  0.24718  0.19300  1.0000
  H   H14       1.0  0.62032  0.24704  0.30692  1.0000
  H   H15       1.0  0.86607  0.75282  0.80699  1.0000
  H   H16       1.0  0.37967  0.75296  0.69307  1.0000
  H   H17       1.0  0.45599  0.08948  0.24991  1.0000
  H   H18       1.0  0.54400  0.91052  0.75008  1.0000
  C   C1        1.0  0.44280  0.82396  0.12095  1.0000
  C   C2        1.0  0.73359  0.82403  0.37920  1.0000
  C   C3        1.0  0.55725  0.17597  0.87907  1.0000
  C   C4        1.0  0.26642  0.17596  0.62080  1.0000
  C   C5        1.0  0.24286  0.39487  0.02553  1.0000
  C   C6        1.0  0.36242  0.39483  0.47438  1.0000
  C   C7        1.0  0.75715  0.60514  0.97447  1.0000
  C   C8        1.0  0.63757  0.60519  0.52563  1.0000
  C   C9        1.0  0.78643  0.02159  0.05383  1.0000
  C   C10       1.0  0.19173  0.02214  0.44621  1.0000
  C   C11       1.0  0.21357  0.97843  0.94617  1.0000
  C   C12       1.0  0.80827  0.97785  0.55379  1.0000
  C   C13       1.0  0.76883  0.17784  0.04380  1.0000
  C   C14       1.0  0.05284  0.17838  0.45620  1.0000
  C   C15       1.0  0.23116  0.82218  0.95620  1.0000
  C   C16       1.0  0.94715  0.82161  0.54380  1.0000
  C   C17       1.0  0.81467  0.25564  0.09004  1.0000
  C   C18       1.0  0.92935  0.25604  0.40994  1.0000
  C   C19       1.0  0.18532  0.74437  0.90996  1.0000
  C   C20       1.0  0.07063  0.74395  0.59007  1.0000
  C   C21       1.0  0.89363  0.03312  0.14720  1.0000
  C   C22       1.0  0.07330  0.03339  0.35283  1.0000
  C   C23       1.0  0.10637  0.96689  0.85280  1.0000
  C   C24       1.0  0.92670  0.96660  0.64717  1.0000
  C   C25       1.0  0.97667  0.94800  0.20318  1.0000
  C   C26       1.0  0.07566  0.94812  0.29685  1.0000
  C   C27       1.0  0.02333  0.05201  0.79682  1.0000
  C   C28       1.0  0.92434  0.05188  0.70315  1.0000
  C   C29       1.0  0.14393  0.71324  0.25001  1.0000
  C   C30       1.0  0.85607  0.28677  0.74999  1.0000
  C   C31       1.0  0.23292  0.53553  0.25000  1.0000
  C   C32       1.0  0.76707  0.46447  0.74999  1.0000
  C   C33       1.0  0.21600  0.30473  0.21822  1.0000
  C   C34       1.0  0.48070  0.30466  0.28172  1.0000
  C   C35       1.0  0.78400  0.69528  0.78177  1.0000
  C   C36       1.0  0.51930  0.69534  0.71827  1.0000
  C   C37       1.0  0.39126  0.21893  0.24995  1.0000
  C   C38       1.0  0.60873  0.78108  0.75005  1.0000
  S   S1        1.0  0.58591  0.67746  0.16407  1.0000
  S   S2        1.0  0.73688  0.67763  0.33603  1.0000
  S   S3        1.0  0.41417  0.32246  0.83594  1.0000
  S   S4        1.0  0.26312  0.32236  0.66397  1.0000
  S   S5        1.0  0.30333  0.50845  0.07115  1.0000
  S   S6        1.0  0.18850  0.50851  0.42875  1.0000
  S   S7        1.0  0.69669  0.49157  0.92885  1.0000
  S   S8        1.0  0.81149  0.49150  0.57124  1.0000
  N   N1        1.0  0.33517  0.92830  0.09168  1.0000
  N   N2        1.0  0.73701  0.92822  0.40854  1.0000
  N   N3        1.0  0.66489  0.07163  0.90835  1.0000
  N   N4        1.0  0.26300  0.07177  0.59146  1.0000
  N   N5        1.0  0.20862  0.31022  0.99270  1.0000
  N   N6        1.0  0.48120  0.31000  0.50719  1.0000
  N   N7        1.0  0.79138  0.68979  0.00730  1.0000
  N   N8        1.0  0.51878  0.69002  0.49282  1.0000
  N   N9        1.0  0.85207  0.94857  0.10539  1.0000
  N   N10       1.0  0.19934  0.94898  0.39466  1.0000
  N   N11       1.0  0.14793  0.05144  0.89460  1.0000
  N   N12       1.0  0.80067  0.05102  0.60534  1.0000
  N   N13       1.0  0.87384  0.18511  0.14241  1.0000
  N   N14       1.0  0.94098  0.18537  0.35758  1.0000
  N   N15       1.0  0.12616  0.81491  0.85759  1.0000
  N   N16       1.0  0.05901  0.81462  0.64243  1.0000
  N   N17       1.0  0.98332  0.03335  0.25002  1.0000
  N   N18       1.0  0.01669  0.96665  0.74998  1.0000
  N   N19       1.0  0.04430  0.78874  0.20267  1.0000
  N   N20       1.0  0.16780  0.78889  0.29735  1.0000
  N   N21       1.0  0.95569  0.21127  0.79733  1.0000
  N   N22       1.0  0.83220  0.21111  0.70265  1.0000
  N   N23       1.0  0.13788  0.46416  0.21758  1.0000
  N   N24       1.0  0.39933  0.46411  0.28242  1.0000
  N   N25       1.0  0.86211  0.53585  0.78241  1.0000
  N   N26       1.0  0.60066  0.53589  0.71758  1.0000
