data_image0
_chemical_formula_structural       Cu2H22C26N2O18
_chemical_formula_sum              "Cu2 H22 C26 N2 O18"
_cell_length_a       10.4158
_cell_length_b       10.8285
_cell_length_c       10.8753
_cell_angle_alpha    87.7812
_cell_angle_beta     99.5692
_cell_angle_gamma    106.338

_space_group_name_H-M_alt    "P 1"
_space_group_IT_number       1

loop_
  _space_group_symop_operation_xyz
  'x, y, z'

loop_
  _atom_site_type_symbol
  _atom_site_label
  _atom_site_symmetry_multiplicity
  _atom_site_fract_x
  _atom_site_fract_y
  _atom_site_fract_z
  _atom_site_occupancy
  Cu  Cu1       1.0  0.36799  0.46581  0.48120  1.0000
  Cu  Cu2       1.0  0.63201  0.53419  0.51881  1.0000
  H   H1        1.0  0.26467  0.74916  0.16842  1.0000
  H   H2        1.0  0.73534  0.25084  0.83159  1.0000
  H   H3        1.0  0.68555  0.92027  0.61858  1.0000
  H   H4        1.0  0.31445  0.07973  0.38142  1.0000
  H   H5        1.0  0.44476  0.66682  0.11466  1.0000
  H   H6        1.0  0.55524  0.33317  0.88534  1.0000
  H   H7        1.0  0.62235  0.13652  0.11701  1.0000
  H   H8        1.0  0.37764  0.86347  0.88300  1.0000
  H   H9        1.0  0.13951  0.56645  0.33882  1.0000
  H   H10       1.0  0.86049  0.43356  0.66118  1.0000
  H   H11       1.0  0.96612  0.59907  0.22350  1.0000
  H   H12       1.0  0.03387  0.40095  0.77650  1.0000
  H   H13       1.0  0.80491  0.52602  0.26864  1.0000
  H   H14       1.0  0.19509  0.47399  0.73136  1.0000
  H   H15       1.0  0.85757  0.45410  0.14716  1.0000
  H   H16       1.0  0.14243  0.54592  0.85283  1.0000
  H   H17       1.0  0.83940  0.23976  0.29312  1.0000
  H   H18       1.0  0.16061  0.76025  0.70686  1.0000
  H   H19       1.0  0.77876  0.32671  0.39662  1.0000
  H   H20       1.0  0.22124  0.67330  0.60336  1.0000
  H   H21       1.0  0.92776  0.27473  0.44886  1.0000
  H   H22       1.0  0.07224  0.72528  0.55112  1.0000
  C   C1        1.0  0.50233  0.73503  0.48095  1.0000
  C   C2        1.0  0.49769  0.26499  0.51905  1.0000
  C   C3        1.0  0.50323  0.87326  0.48374  1.0000
  C   C4        1.0  0.49679  0.12674  0.51627  1.0000
  C   C5        1.0  0.60564  0.95656  0.56572  1.0000
  C   C6        1.0  0.39437  0.04344  0.43428  1.0000
  C   C7        1.0  0.39749  0.91749  0.41669  1.0000
  C   C8        1.0  0.60252  0.08250  0.58331  1.0000
  C   C9        1.0  0.28916  0.83731  0.32135  1.0000
  C   C10       1.0  0.71086  0.16269  0.67865  1.0000
  C   C11       1.0  0.49112  0.48309  0.26610  1.0000
  C   C12       1.0  0.50888  0.51690  0.73390  1.0000
  C   C13       1.0  0.49331  0.48628  0.12815  1.0000
  C   C14       1.0  0.50668  0.51371  0.87186  1.0000
  C   C15       1.0  0.46708  0.59274  0.06381  1.0000
  C   C16       1.0  0.53292  0.40726  0.93620  1.0000
  C   C17       1.0  0.52680  0.39238  0.06375  1.0000
  C   C18       1.0  0.47319  0.60761  0.93627  1.0000
  C   C19       1.0  0.55062  0.27649  0.13021  1.0000
  C   C20       1.0  0.44936  0.72349  0.86979  1.0000
  C   C21       1.0  0.08719  0.47278  0.37601  1.0000
  C   C22       1.0  0.91280  0.52722  0.62398  1.0000
  C   C23       1.0  0.89220  0.50686  0.23678  1.0000
  C   C24       1.0  0.10780  0.49316  0.76321  1.0000
  C   C25       1.0  0.86997  0.31122  0.36953  1.0000
  C   C26       1.0  0.13003  0.68878  0.63046  1.0000
  N   N1        1.0  0.95490  0.43198  0.32941  1.0000
  N   N2        1.0  0.04509  0.56803  0.67058  1.0000
  O   O1        1.0  0.38545  0.65347  0.46400  1.0000
  O   O2        1.0  0.61457  0.34653  0.53601  1.0000
  O   O3        1.0  0.61691  0.71196  0.50023  1.0000
  O   O4        1.0  0.38309  0.28803  0.49977  1.0000
  O   O5        1.0  0.16747  0.81557  0.32022  1.0000
  O   O6        1.0  0.83255  0.18443  0.67978  1.0000
  O   O7        1.0  0.34195  0.79781  0.22818  1.0000
  O   O8        1.0  0.65805  0.20219  0.77183  1.0000
  O   O9        1.0  0.60699  0.51522  0.33423  1.0000
  O   O10       1.0  0.39299  0.48477  0.66578  1.0000
  O   O11       1.0  0.37536  0.45821  0.29891  1.0000
  O   O12       1.0  0.62464  0.54179  0.70109  1.0000
  O   O13       1.0  0.61483  0.21184  0.06639  1.0000
  O   O14       1.0  0.38517  0.78814  0.93362  1.0000
  O   O15       1.0  0.51716  0.23975  0.23076  1.0000
  O   O16       1.0  0.48283  0.76024  0.76926  1.0000
  O   O17       1.0  0.14814  0.41347  0.45538  1.0000
  O   O18       1.0  0.85185  0.58654  0.54461  1.0000
