data_image0
_chemical_formula_structural       Ag2H12C14S2N6O6F6
_chemical_formula_sum              "Ag2 H12 C14 S2 N6 O6 F6"
_cell_length_a       7.1761
_cell_length_b       8.74409
_cell_length_c       10.3446
_cell_angle_alpha    99.3755
_cell_angle_beta     105.776
_cell_angle_gamma    110.726

_space_group_name_H-M_alt    "P 1"
_space_group_IT_number       1

loop_
  _space_group_symop_operation_xyz
  'x, y, z'

loop_
  _atom_site_type_symbol
  _atom_site_label
  _atom_site_symmetry_multiplicity
  _atom_site_fract_x
  _atom_site_fract_y
  _atom_site_fract_z
  _atom_site_occupancy
  Ag  Ag1       1.0  0.17403  0.23772  0.11715  1.0000
  Ag  Ag2       1.0  0.82597  0.76228  0.88285  1.0000
  H   H1        1.0  0.18182  0.23748  0.43965  1.0000
  H   H2        1.0  0.81818  0.76251  0.56035  1.0000
  H   H3        1.0  0.38053  0.42231  0.68783  1.0000
  H   H4        1.0  0.61946  0.57768  0.31218  1.0000
  H   H5        1.0  0.83736  0.35105  0.94310  1.0000
  H   H6        1.0  0.16265  0.64895  0.05690  1.0000
  H   H7        1.0  0.47929  0.34598  0.93515  1.0000
  H   H8        1.0  0.52072  0.65404  0.06485  1.0000
  H   H9        1.0  0.47333  0.08045  0.23354  1.0000
  H   H10       1.0  0.52666  0.91955  0.76645  1.0000
  H   H11       1.0  0.82658  0.08178  0.24015  1.0000
  H   H12       1.0  0.17342  0.91822  0.75985  1.0000
  C   C1        1.0  0.18034  0.77426  0.38781  1.0000
  C   C2        1.0  0.81966  0.22573  0.61219  1.0000
  C   C3        1.0  0.32293  0.35582  0.46586  1.0000
  C   C4        1.0  0.67706  0.64417  0.53415  1.0000
  C   C5        1.0  0.43455  0.45857  0.60411  1.0000
  C   C6        1.0  0.56545  0.54142  0.39590  1.0000
  C   C7        1.0  0.75609  0.29163  0.00859  1.0000
  C   C8        1.0  0.24392  0.70837  0.99141  1.0000
  C   C9        1.0  0.55941  0.28927  0.00460  1.0000
  C   C10       1.0  0.44060  0.71074  0.99539  1.0000
  C   C11       1.0  0.55631  0.14221  0.16958  1.0000
  C   C12       1.0  0.44369  0.85780  0.83041  1.0000
  C   C13       1.0  0.75205  0.14412  0.17337  1.0000
  C   C14       1.0  0.24795  0.85588  0.82663  1.0000
  S   S1        1.0  0.99162  0.82378  0.25574  1.0000
  S   S2        1.0  0.00838  0.17622  0.74427  1.0000
  N   N1        1.0  0.38839  0.39771  0.36162  1.0000
  N   N2        1.0  0.61161  0.60228  0.63839  1.0000
  N   N3        1.0  0.85247  0.21856  0.09236  1.0000
  N   N4        1.0  0.14754  0.78144  0.90764  1.0000
  N   N5        1.0  0.45867  0.21425  0.08464  1.0000
  N   N6        1.0  0.54133  0.78576  0.91535  1.0000
  O   O1        1.0  0.13487  0.97151  0.22870  1.0000
  O   O2        1.0  0.86514  0.02849  0.77131  1.0000
  O   O3        1.0  0.88606  0.66642  0.13884  1.0000
  O   O4        1.0  0.11394  0.33359  0.86116  1.0000
  O   O5        1.0  0.85390  0.85861  0.32546  1.0000
  O   O6        1.0  0.14610  0.14139  0.67454  1.0000
  F   F1        1.0  0.28408  0.90163  0.50980  1.0000
  F   F2        1.0  0.71592  0.09837  0.49020  1.0000
  F   F3        1.0  0.07665  0.62784  0.41692  1.0000
  F   F4        1.0  0.92334  0.37215  0.58308  1.0000
  F   F5        1.0  0.32852  0.75247  0.33712  1.0000
  F   F6        1.0  0.67147  0.24752  0.66288  1.0000
