data_image0
_chemical_formula_structural       Ag4H12C16S4N12O12F12
_chemical_formula_sum              "Ag4 H12 C16 S4 N12 O12 F12"
_cell_length_a       8.1704
_cell_length_b       9.20735
_cell_length_c       11.9241
_cell_angle_alpha    90.0003
_cell_angle_beta     89.9999
_cell_angle_gamma    90.0001

_space_group_name_H-M_alt    "P 1"
_space_group_IT_number       1

loop_
  _space_group_symop_operation_xyz
  'x, y, z'

loop_
  _atom_site_type_symbol
  _atom_site_label
  _atom_site_symmetry_multiplicity
  _atom_site_fract_x
  _atom_site_fract_y
  _atom_site_fract_z
  _atom_site_occupancy
  Ag  Ag1       1.0  0.71326  0.88141  0.81708  1.0000
  Ag  Ag2       1.0  0.21326  0.38142  0.68292  1.0000
  Ag  Ag3       1.0  0.21326  0.11859  0.18292  1.0000
  Ag  Ag4       1.0  0.71326  0.61858  0.31707  1.0000
  H   H1        1.0  0.75058  0.80672  0.55415  1.0000
  H   H2        1.0  0.25058  0.30673  0.94585  1.0000
  H   H3        1.0  0.25057  0.19328  0.44585  1.0000
  H   H4        1.0  0.75058  0.69328  0.05415  1.0000
  H   H5        1.0  0.41576  0.65798  0.79213  1.0000
  H   H6        1.0  0.91576  0.15798  0.70787  1.0000
  H   H7        1.0  0.91576  0.34202  0.20787  1.0000
  H   H8        1.0  0.41576  0.84202  0.29213  1.0000
  H   H9        1.0  0.43111  0.47118  0.47569  1.0000
  H   H10       1.0  0.93110  0.97118  0.02430  1.0000
  H   H11       1.0  0.93110  0.52882  0.52431  1.0000
  H   H12       1.0  0.43110  0.02882  0.97570  1.0000
  C   C1        1.0  0.47205  0.65025  0.70961  1.0000
  C   C2        1.0  0.97206  0.15026  0.79038  1.0000
  C   C3        1.0  0.97205  0.34974  0.29038  1.0000
  C   C4        1.0  0.47206  0.84974  0.20962  1.0000
  C   C5        1.0  0.65317  0.73262  0.57914  1.0000
  C   C6        1.0  0.15317  0.23263  0.92086  1.0000
  C   C7        1.0  0.15317  0.26738  0.42086  1.0000
  C   C8        1.0  0.65317  0.76737  0.07914  1.0000
  C   C9        1.0  0.47664  0.55085  0.53540  1.0000
  C   C10       1.0  0.97664  0.05085  0.96460  1.0000
  C   C11       1.0  0.97664  0.44915  0.46460  1.0000
  C   C12       1.0  0.47664  0.94915  0.03540  1.0000
  C   C13       1.0  0.63018  0.13870  0.43591  1.0000
  C   C14       1.0  0.13017  0.63870  0.06409  1.0000
  C   C15       1.0  0.13017  0.86130  0.56409  1.0000
  C   C16       1.0  0.63017  0.36130  0.93591  1.0000
  S   S1        1.0  0.60628  0.18883  0.58642  1.0000
  S   S2        1.0  0.10628  0.68883  0.91358  1.0000
  S   S3        1.0  0.10628  0.81117  0.41358  1.0000
  S   S4        1.0  0.60628  0.31117  0.08642  1.0000
  N   N1        1.0  0.59791  0.73851  0.68514  1.0000
  N   N2        1.0  0.09791  0.23852  0.81486  1.0000
  N   N3        1.0  0.09791  0.26148  0.31486  1.0000
  N   N4        1.0  0.59791  0.76148  0.18514  1.0000
  N   N5        1.0  0.59560  0.85928  0.00158  1.0000
  N   N6        1.0  0.09559  0.35928  0.49843  1.0000
  N   N7        1.0  0.09560  0.14072  0.99842  1.0000
  N   N8        1.0  0.59560  0.64071  0.50157  1.0000
  N   N9        1.0  0.90883  0.05407  0.86247  1.0000
  N   N10       1.0  0.40882  0.55406  0.63753  1.0000
  N   N11       1.0  0.40882  0.94593  0.13753  1.0000
  N   N12       1.0  0.90882  0.44593  0.36247  1.0000
  O   O1        1.0  0.69851  0.32407  0.59670  1.0000
  O   O2        1.0  0.19851  0.82407  0.90331  1.0000
  O   O3        1.0  0.19851  0.67593  0.40331  1.0000
  O   O4        1.0  0.69851  0.17593  0.09669  1.0000
  O   O5        1.0  0.67804  0.06440  0.64387  1.0000
  O   O6        1.0  0.17805  0.56440  0.85613  1.0000
  O   O7        1.0  0.17803  0.93561  0.35613  1.0000
  O   O8        1.0  0.67804  0.43560  0.14387  1.0000
  O   O9        1.0  0.42885  0.20265  0.59746  1.0000
  O   O10       1.0  0.92885  0.70266  0.90254  1.0000
  O   O11       1.0  0.92885  0.79735  0.40254  1.0000
  O   O12       1.0  0.42885  0.29735  0.09746  1.0000
  F   F1        1.0  0.78975  0.12285  0.40753  1.0000
  F   F2        1.0  0.28974  0.62285  0.09247  1.0000
  F   F3        1.0  0.28974  0.87715  0.59247  1.0000
  F   F4        1.0  0.78974  0.37715  0.90753  1.0000
  F   F5        1.0  0.55280  0.01115  0.41383  1.0000
  F   F6        1.0  0.05279  0.51115  0.08617  1.0000
  F   F7        1.0  0.05280  0.98885  0.58618  1.0000
  F   F8        1.0  0.55279  0.48885  0.91383  1.0000
  F   F9        1.0  0.56371  0.24229  0.36786  1.0000
  F   F10       1.0  0.06370  0.74230  0.13214  1.0000
  F   F11       1.0  0.06371  0.75771  0.63214  1.0000
  F   F12       1.0  0.56371  0.25770  0.86786  1.0000
