data_image0
_chemical_formula_structural       Sm4H24C12O36
_chemical_formula_sum              "Sm4 H24 C12 O36"
_cell_length_a       8.3379
_cell_length_b       9.61372
_cell_length_c       9.56141
_cell_angle_alpha    90
_cell_angle_beta     89.9995
_cell_angle_gamma    91.3791

_space_group_name_H-M_alt    "P 1"
_space_group_IT_number       1

loop_
  _space_group_symop_operation_xyz
  'x, y, z'

loop_
  _atom_site_type_symbol
  _atom_site_label
  _atom_site_symmetry_multiplicity
  _atom_site_fract_x
  _atom_site_fract_y
  _atom_site_fract_z
  _atom_site_occupancy
  Sm  Sm1       1.0  0.75026  0.75273  0.49385  1.0000
  Sm  Sm2       1.0  0.24974  0.74727  0.99385  1.0000
  Sm  Sm3       1.0  0.24974  0.24727  0.50615  1.0000
  Sm  Sm4       1.0  0.75026  0.25273  0.00615  1.0000
  H   H1        1.0  0.64811  0.77158  0.18617  1.0000
  H   H2        1.0  0.35188  0.72843  0.68617  1.0000
  H   H3        1.0  0.35189  0.22842  0.81382  1.0000
  H   H4        1.0  0.64811  0.27158  0.31383  1.0000
  H   H5        1.0  0.74922  0.91488  0.21591  1.0000
  H   H6        1.0  0.25077  0.58513  0.71590  1.0000
  H   H7        1.0  0.25077  0.08513  0.78409  1.0000
  H   H8        1.0  0.74922  0.41487  0.28409  1.0000
  H   H9        1.0  0.11231  0.88584  0.45566  1.0000
  H   H10       1.0  0.88769  0.61416  0.95566  1.0000
  H   H11       1.0  0.88769  0.11416  0.54434  1.0000
  H   H12       1.0  0.11231  0.38584  0.04434  1.0000
  H   H13       1.0  0.02219  0.86873  0.30817  1.0000
  H   H14       1.0  0.97781  0.63127  0.80817  1.0000
  H   H15       1.0  0.97781  0.13127  0.69183  1.0000
  H   H16       1.0  0.02219  0.36873  0.19183  1.0000
  H   H17       1.0  0.73789  0.92935  0.76623  1.0000
  H   H18       1.0  0.26211  0.57066  0.26623  1.0000
  H   H19       1.0  0.26211  0.07066  0.23377  1.0000
  H   H20       1.0  0.73789  0.42935  0.73377  1.0000
  H   H21       1.0  0.85354  0.80231  0.79750  1.0000
  H   H22       1.0  0.14647  0.69770  0.29750  1.0000
  H   H23       1.0  0.14646  0.19770  0.20249  1.0000
  H   H24       1.0  0.85354  0.30231  0.70250  1.0000
  C   C1        1.0  0.56890  0.05354  0.48146  1.0000
  C   C2        1.0  0.43109  0.44647  0.98146  1.0000
  C   C3        1.0  0.43109  0.94647  0.51854  1.0000
  C   C4        1.0  0.56891  0.55354  0.01855  1.0000
  C   C5        1.0  0.97110  0.47677  0.42688  1.0000
  C   C6        1.0  0.02890  0.02322  0.92688  1.0000
  C   C7        1.0  0.02891  0.52320  0.57311  1.0000
  C   C8        1.0  0.97110  0.97680  0.07312  1.0000
  C   C9        1.0  0.47344  0.51941  0.42524  1.0000
  C   C10       1.0  0.52655  0.98060  0.92523  1.0000
  C   C11       1.0  0.52654  0.48058  0.57477  1.0000
  C   C12       1.0  0.47345  0.01942  0.07477  1.0000
  O   O1        1.0  0.71170  0.01083  0.48863  1.0000
  O   O2        1.0  0.28830  0.48917  0.98863  1.0000
  O   O3        1.0  0.28830  0.98917  0.51137  1.0000
  O   O4        1.0  0.71170  0.51084  0.01137  1.0000
  O   O5        1.0  0.52727  0.17455  0.44744  1.0000
  O   O6        1.0  0.47272  0.32545  0.94744  1.0000
  O   O7        1.0  0.47273  0.82545  0.55256  1.0000
  O   O8        1.0  0.52727  0.67456  0.05257  1.0000
  O   O9        1.0  0.86134  0.54617  0.37053  1.0000
  O   O10       1.0  0.13867  0.95382  0.87054  1.0000
  O   O11       1.0  0.13866  0.45381  0.62946  1.0000
  O   O12       1.0  0.86134  0.04618  0.12947  1.0000
  O   O13       1.0  0.03679  0.37194  0.37367  1.0000
  O   O14       1.0  0.96322  0.12805  0.87367  1.0000
  O   O15       1.0  0.96321  0.62803  0.62632  1.0000
  O   O16       1.0  0.03680  0.87196  0.12633  1.0000
  O   O17       1.0  0.54548  0.61906  0.36655  1.0000
  O   O18       1.0  0.45452  0.88094  0.86654  1.0000
  O   O19       1.0  0.45451  0.38094  0.63346  1.0000
  O   O20       1.0  0.54548  0.11906  0.13346  1.0000
  O   O21       1.0  0.35790  0.44721  0.37242  1.0000
  O   O22       1.0  0.64210  0.05279  0.87241  1.0000
  O   O23       1.0  0.64208  0.55279  0.62758  1.0000
  O   O24       1.0  0.35792  0.94721  0.12757  1.0000
  O   O25       1.0  0.70407  0.82849  0.25809  1.0000
  O   O26       1.0  0.29593  0.67152  0.75809  1.0000
  O   O27       1.0  0.29594  0.17151  0.74191  1.0000
  O   O28       1.0  0.70406  0.32848  0.24191  1.0000
  O   O29       1.0  0.02562  0.83293  0.40605  1.0000
  O   O30       1.0  0.97438  0.66708  0.90605  1.0000
  O   O31       1.0  0.97437  0.16708  0.59395  1.0000
  O   O32       1.0  0.02563  0.33293  0.09395  1.0000
  O   O33       1.0  0.80229  0.85518  0.72239  1.0000
  O   O34       1.0  0.19771  0.64482  0.22239  1.0000
  O   O35       1.0  0.19772  0.14482  0.27761  1.0000
  O   O36       1.0  0.80228  0.35518  0.77761  1.0000
