data_image0
_chemical_formula_structural       Cu2H12C12S4N16
_chemical_formula_sum              "Cu2 H12 C12 S4 N16"
_cell_length_a       7.93968
_cell_length_b       8.83338
_cell_length_c       9.82611
_cell_angle_alpha    114.632
_cell_angle_beta     89.9995
_cell_angle_gamma    90.0005

_space_group_name_H-M_alt    "P 1"
_space_group_IT_number       1

loop_
  _space_group_symop_operation_xyz
  'x, y, z'

loop_
  _atom_site_type_symbol
  _atom_site_label
  _atom_site_symmetry_multiplicity
  _atom_site_fract_x
  _atom_site_fract_y
  _atom_site_fract_z
  _atom_site_occupancy
  Cu  Cu1       1.0  1.00000  0.00000  0.00000  1.0000
  Cu  Cu2       1.0  0.50001  0.50000  0.50000  1.0000
  H   H1        1.0  0.83245  0.95894  0.33674  1.0000
  H   H2        1.0  0.33245  0.54106  0.16326  1.0000
  H   H3        1.0  0.16755  0.04105  0.66325  1.0000
  H   H4        1.0  0.66755  0.45894  0.83674  1.0000
  H   H5        1.0  0.69463  0.30552  0.18113  1.0000
  H   H6        1.0  0.19462  0.19447  0.31887  1.0000
  H   H7        1.0  0.30538  0.69447  0.81887  1.0000
  H   H8        1.0  0.80538  0.80553  0.68113  1.0000
  H   H9        1.0  0.64441  0.17689  0.54694  1.0000
  H   H10       1.0  0.14439  0.32312  0.95307  1.0000
  H   H11       1.0  0.35561  0.82311  0.45306  1.0000
  H   H12       1.0  0.85559  0.67689  0.04694  1.0000
  C   C1        1.0  0.26217  0.84093  0.12963  1.0000
  C   C2        1.0  0.76218  0.65908  0.37036  1.0000
  C   C3        1.0  0.73783  0.15908  0.87037  1.0000
  C   C4        1.0  0.23782  0.34092  0.62963  1.0000
  C   C5        1.0  0.70665  0.24035  0.25267  1.0000
  C   C6        1.0  0.20665  0.25965  0.24734  1.0000
  C   C7        1.0  0.29335  0.75965  0.74733  1.0000
  C   C8        1.0  0.79335  0.74035  0.75267  1.0000
  C   C9        1.0  0.67962  0.17808  0.44039  1.0000
  C   C10       1.0  0.17961  0.32193  0.05962  1.0000
  C   C11       1.0  0.32039  0.82192  0.55961  1.0000
  C   C12       1.0  0.82037  0.67807  0.94038  1.0000
  S   S1        1.0  0.43709  0.77991  0.17581  1.0000
  S   S2        1.0  0.93709  0.72010  0.32419  1.0000
  S   S3        1.0  0.56292  0.22010  0.82419  1.0000
  S   S4        1.0  0.06291  0.27990  0.67581  1.0000
  N   N1        1.0  0.13211  0.88537  0.09899  1.0000
  N   N2        1.0  0.63210  0.61463  0.40101  1.0000
  N   N3        1.0  0.86790  0.11464  0.90101  1.0000
  N   N4        1.0  0.36791  0.38537  0.59899  1.0000
  N   N5        1.0  0.77649  0.06490  0.33601  1.0000
  N   N6        1.0  0.27649  0.43510  0.16399  1.0000
  N   N7        1.0  0.22351  0.93509  0.66399  1.0000
  N   N8        1.0  0.72350  0.56490  0.83600  1.0000
  N   N9        1.0  0.79458  0.10136  0.21563  1.0000
  N   N10       1.0  0.29458  0.39864  0.28437  1.0000
  N   N11       1.0  0.20542  0.89864  0.78437  1.0000
  N   N12       1.0  0.70542  0.60136  0.71562  1.0000
  N   N13       1.0  0.63387  0.29183  0.39044  1.0000
  N   N14       1.0  0.13385  0.20817  0.10957  1.0000
  N   N15       1.0  0.36614  0.70816  0.60957  1.0000
  N   N16       1.0  0.86613  0.79184  0.89044  1.0000
