data_image0
_chemical_formula_structural       Cd2H20C24I4N8O2
_chemical_formula_sum              "Cd2 H20 C24 I4 N8 O2"
_cell_length_a       7.40746
_cell_length_b       7.55066
_cell_length_c       13.3885
_cell_angle_alpha    90
_cell_angle_beta     93.2612
_cell_angle_gamma    90.0006

_space_group_name_H-M_alt    "P 1"
_space_group_IT_number       1

loop_
  _space_group_symop_operation_xyz
  'x, y, z'

loop_
  _atom_site_type_symbol
  _atom_site_label
  _atom_site_symmetry_multiplicity
  _atom_site_fract_x
  _atom_site_fract_y
  _atom_site_fract_z
  _atom_site_occupancy
  Cd  Cd1       1.0  0.64862  0.86154  0.43409  1.0000
  Cd  Cd2       1.0  0.64863  0.13847  0.93409  1.0000
  H   H1        1.0  0.79745  0.79748  0.12449  1.0000
  H   H2        1.0  0.79746  0.20252  0.62449  1.0000
  H   H3        1.0  0.26117  0.46857  0.16109  1.0000
  H   H4        1.0  0.26118  0.53144  0.66109  1.0000
  H   H5        1.0  0.02718  0.35551  0.27382  1.0000
  H   H6        1.0  0.02717  0.64448  0.77382  1.0000
  H   H7        1.0  0.04339  0.45460  0.45314  1.0000
  H   H8        1.0  0.04338  0.54538  0.95314  1.0000
  H   H9        1.0  0.29009  0.66175  0.51146  1.0000
  H   H10       1.0  0.29009  0.33824  0.01146  1.0000
  H   H11       1.0  0.53575  0.64499  0.13656  1.0000
  H   H12       1.0  0.53576  0.35502  0.63656  1.0000
  H   H13       1.0  0.26982  0.06803  0.29754  1.0000
  H   H14       1.0  0.26982  0.93198  0.79754  1.0000
  H   H15       1.0  0.51353  0.16024  0.18682  1.0000
  H   H16       1.0  0.51352  0.83975  0.68683  1.0000
  H   H17       1.0  0.25200  0.91770  0.94158  1.0000
  H   H18       1.0  0.25200  0.08229  0.44159  1.0000
  H   H19       1.0  0.99818  0.82320  0.03756  1.0000
  H   H20       1.0  0.99819  0.17680  0.53757  1.0000
  C   C1        1.0  0.40139  0.61793  0.27900  1.0000
  C   C2        1.0  0.40140  0.38208  0.77901  1.0000
  C   C3        1.0  0.26457  0.50594  0.23979  1.0000
  C   C4        1.0  0.26458  0.49406  0.73979  1.0000
  C   C5        1.0  0.13515  0.44310  0.30248  1.0000
  C   C6        1.0  0.13515  0.55689  0.80248  1.0000
  C   C7        1.0  0.14463  0.49599  0.40212  1.0000
  C   C8        1.0  0.14463  0.50401  0.90212  1.0000
  C   C9        1.0  0.28194  0.61205  0.43501  1.0000
  C   C10       1.0  0.28194  0.38796  0.93501  1.0000
  C   C11       1.0  0.54439  0.67711  0.21666  1.0000
  C   C12       1.0  0.54440  0.32290  0.71666  1.0000
  C   C13       1.0  0.96829  0.88750  0.24628  1.0000
  C   C14       1.0  0.96828  0.11250  0.74629  1.0000
  C   C15       1.0  0.11234  0.93808  0.17805  1.0000
  C   C16       1.0  0.11234  0.06192  0.67806  1.0000
  C   C17       1.0  0.26099  0.03310  0.21868  1.0000
  C   C18       1.0  0.26100  0.96690  0.71869  1.0000
  C   C19       1.0  0.39691  0.08416  0.15715  1.0000
  C   C20       1.0  0.39691  0.91583  0.65716  1.0000
  C   C21       1.0  0.25222  0.94946  0.02081  1.0000
  C   C22       1.0  0.25223  0.05053  0.52082  1.0000
  C   C23       1.0  0.10930  0.89482  0.07633  1.0000
  C   C24       1.0  0.10930  0.10519  0.57634  1.0000
  I   I1        1.0  0.66783  0.22832  0.41288  1.0000
  I   I2        1.0  0.66779  0.77169  0.91288  1.0000
  I   I3        1.0  0.82079  0.67012  0.58727  1.0000
  I   I4        1.0  0.82080  0.32989  0.08727  1.0000
  N   N1        1.0  0.40714  0.67232  0.37558  1.0000
  N   N2        1.0  0.40715  0.32769  0.87558  1.0000
  N   N3        1.0  0.68061  0.76170  0.25812  1.0000
  N   N4        1.0  0.68061  0.23830  0.75812  1.0000
  N   N5        1.0  0.81394  0.81424  0.20079  1.0000
  N   N6        1.0  0.81395  0.18576  0.70079  1.0000
  N   N7        1.0  0.39317  0.04393  0.05926  1.0000
  N   N8        1.0  0.39317  0.95607  0.55927  1.0000
  O   O1        1.0  0.98616  0.90833  0.33788  1.0000
  O   O2        1.0  0.98615  0.09166  0.83788  1.0000
