data_image0
_chemical_formula_structural       Ni2H24C20N20
_chemical_formula_sum              "Ni2 H24 C20 N20"
_cell_length_a       8.78688
_cell_length_b       9.366
_cell_length_c       10.194
_cell_angle_alpha    104.7
_cell_angle_beta     102.771
_cell_angle_gamma    113.136

_space_group_name_H-M_alt    "P 1"
_space_group_IT_number       1

loop_
  _space_group_symop_operation_xyz
  'x, y, z'

loop_
  _atom_site_type_symbol
  _atom_site_label
  _atom_site_symmetry_multiplicity
  _atom_site_fract_x
  _atom_site_fract_y
  _atom_site_fract_z
  _atom_site_occupancy
  Ni  Ni1       1.0  0.50000  0.00000  1.00000  1.0000
  Ni  Ni2       1.0  0.50000  0.50000  0.50000  1.0000
  H   H1        1.0  0.42333  0.26392  0.18444  1.0000
  H   H2        1.0  0.57667  0.73608  0.81556  1.0000
  H   H3        1.0  0.58111  0.24601  0.31369  1.0000
  H   H4        1.0  0.41889  0.75399  0.68631  1.0000
  H   H5        1.0  0.51778  0.17391  0.51091  1.0000
  H   H6        1.0  0.48222  0.82609  0.48909  1.0000
  H   H7        1.0  0.30942  0.13849  0.53009  1.0000
  H   H8        1.0  0.69058  0.86151  0.46991  1.0000
  H   H9        1.0  0.04270  0.89689  0.36458  1.0000
  H   H10       1.0  0.95730  0.10311  0.63542  1.0000
  H   H11       1.0  0.04512  0.74709  0.21834  1.0000
  H   H12       1.0  0.95489  0.25291  0.78166  1.0000
  H   H13       1.0  0.15230  0.01816  0.01545  1.0000
  H   H14       1.0  0.84770  0.98184  0.98455  1.0000
  H   H15       1.0  0.10999  0.81732  0.02153  1.0000
  H   H16       1.0  0.89001  0.18268  0.97847  1.0000
  H   H17       1.0  0.32679  0.79157  0.19079  1.0000
  H   H18       1.0  0.67322  0.20843  0.80921  1.0000
  H   H19       1.0  0.52662  0.97633  0.31654  1.0000
  H   H20       1.0  0.47338  0.02367  0.68346  1.0000
  H   H21       1.0  0.09719  0.16919  0.36018  1.0000
  H   H22       1.0  0.90281  0.83081  0.63982  1.0000
  H   H23       1.0  0.14593  0.22022  0.21141  1.0000
  H   H24       1.0  0.85407  0.77978  0.78859  1.0000
  C   C1        1.0  0.43979  0.19592  0.25449  1.0000
  C   C2        1.0  0.56021  0.80408  0.74551  1.0000
  C   C3        1.0  0.37565  0.12316  0.45233  1.0000
  C   C4        1.0  0.62435  0.87684  0.54767  1.0000
  C   C5        1.0  0.10724  0.88136  0.28503  1.0000
  C   C6        1.0  0.89276  0.11865  0.71497  1.0000
  C   C7        1.0  0.16860  0.95121  0.08719  1.0000
  C   C8        1.0  0.83140  0.04879  0.91282  1.0000
  C   C9        1.0  0.38416  0.92500  0.25842  1.0000
  C   C10       1.0  0.61584  0.07500  0.74158  1.0000
  C   C11       1.0  0.16162  0.15107  0.28113  1.0000
  C   C12       1.0  0.83838  0.84893  0.71887  1.0000
  C   C13       1.0  0.15200  0.65727  0.78190  1.0000
  C   C14       1.0  0.84799  0.34273  0.21810  1.0000
  C   C15       1.0  0.86133  0.49819  0.63327  1.0000
  C   C16       1.0  0.13866  0.50181  0.36672  1.0000
  C   C17       1.0  0.63221  0.77011  0.11903  1.0000
  C   C18       1.0  0.36779  0.22989  0.88098  1.0000
  C   C19       1.0  0.62061  0.60875  0.25347  1.0000
  C   C20       1.0  0.37939  0.39125  0.74653  1.0000
  N   N1        1.0  0.36272  0.01643  0.16178  1.0000
  N   N2        1.0  0.63728  0.98357  0.83822  1.0000
  N   N3        1.0  0.35464  0.22208  0.36207  1.0000
  N   N4        1.0  0.64536  0.77792  0.63793  1.0000
  N   N5        1.0  0.29713  0.94467  0.36377  1.0000
  N   N6        1.0  0.70287  0.05533  0.63623  1.0000
  N   N7        1.0  0.08077  0.97265  0.19134  1.0000
  N   N8        1.0  0.91923  0.02735  0.80866  1.0000
  N   N9        1.0  0.28149  0.78090  0.86368  1.0000
  N   N10       1.0  0.71850  0.21910  0.13632  1.0000
  N   N11       1.0  0.01647  0.51447  0.69368  1.0000
  N   N12       1.0  0.98353  0.48553  0.30632  1.0000
  N   N13       1.0  0.71587  0.47160  0.57531  1.0000
  N   N14       1.0  0.28413  0.52840  0.42469  1.0000
  N   N15       1.0  0.60444  0.86781  0.07888  1.0000
  N   N16       1.0  0.39555  0.13219  0.92112  1.0000
  N   N17       1.0  0.67166  0.66401  0.15825  1.0000
  N   N18       1.0  0.32834  0.33599  0.84175  1.0000
  N   N19       1.0  0.58127  0.55416  0.34009  1.0000
  N   N20       1.0  0.41872  0.44584  0.65991  1.0000
