data_image0
_chemical_formula_structural       Ag4H36C24N8O20
_chemical_formula_sum              "Ag4 H36 C24 N8 O20"
_cell_length_a       4.94842
_cell_length_b       9.17643
_cell_length_c       20.0579
_cell_angle_alpha    103.171
_cell_angle_beta     89.9999
_cell_angle_gamma    90.0002

_space_group_name_H-M_alt    "P 1"
_space_group_IT_number       1

loop_
  _space_group_symop_operation_xyz
  'x, y, z'

loop_
  _atom_site_type_symbol
  _atom_site_label
  _atom_site_symmetry_multiplicity
  _atom_site_fract_x
  _atom_site_fract_y
  _atom_site_fract_z
  _atom_site_occupancy
  Ag  Ag1       1.0  0.15998  0.61848  0.99445  1.0000
  Ag  Ag2       1.0  0.65999  0.88152  0.50555  1.0000
  Ag  Ag3       1.0  0.84002  0.38151  0.00555  1.0000
  Ag  Ag4       1.0  0.34001  0.11849  0.49445  1.0000
  H   H1        1.0  0.51795  0.06493  0.94288  1.0000
  H   H2        1.0  0.01795  0.43507  0.55712  1.0000
  H   H3        1.0  0.48204  0.93507  0.05712  1.0000
  H   H4        1.0  0.98205  0.56493  0.44288  1.0000
  H   H5        1.0  0.71813  0.93784  0.88193  1.0000
  H   H6        1.0  0.21813  0.56216  0.61807  1.0000
  H   H7        1.0  0.28186  0.06216  0.11807  1.0000
  H   H8        1.0  0.78187  0.43784  0.38193  1.0000
  H   H9        1.0  0.18444  0.04251  0.84623  1.0000
  H   H10       1.0  0.68443  0.45748  0.65376  1.0000
  H   H11       1.0  0.81556  0.95748  0.15376  1.0000
  H   H12       1.0  0.31557  0.54252  0.34624  1.0000
  H   H13       1.0  0.42902  0.82872  0.77245  1.0000
  H   H14       1.0  0.92901  0.67128  0.72755  1.0000
  H   H15       1.0  0.57099  0.17128  0.22755  1.0000
  H   H16       1.0  0.07099  0.32872  0.27245  1.0000
  H   H17       1.0  0.64643  0.97071  0.75322  1.0000
  H   H18       1.0  0.14641  0.52929  0.74678  1.0000
  H   H19       1.0  0.35358  0.02929  0.24678  1.0000
  H   H20       1.0  0.85359  0.47071  0.25322  1.0000
  H   H21       1.0  0.43984  0.23351  0.79842  1.0000
  H   H22       1.0  0.93984  0.26650  0.70158  1.0000
  H   H23       1.0  0.56015  0.76649  0.20158  1.0000
  H   H24       1.0  0.06016  0.73350  0.29842  1.0000
  H   H25       1.0  0.68930  0.21222  0.85961  1.0000
  H   H26       1.0  0.18930  0.28778  0.64039  1.0000
  H   H27       1.0  0.31070  0.78778  0.14039  1.0000
  H   H28       1.0  0.81070  0.71222  0.35961  1.0000
  H   H29       1.0  0.40862  0.84830  0.63858  1.0000
  H   H30       1.0  0.90861  0.65170  0.86142  1.0000
  H   H31       1.0  0.59139  0.15170  0.36142  1.0000
  H   H32       1.0  0.09139  0.34831  0.13858  1.0000
  H   H33       1.0  0.11773  0.95114  0.62282  1.0000
  H   H34       1.0  0.61771  0.54887  0.87719  1.0000
  H   H35       1.0  0.88228  0.04886  0.37718  1.0000
  H   H36       1.0  0.38228  0.45114  0.12282  1.0000
  C   C1        1.0  0.33740  0.84840  0.90928  1.0000
  C   C2        1.0  0.83741  0.65160  0.59072  1.0000
  C   C3        1.0  0.66259  0.15160  0.09072  1.0000
  C   C4        1.0  0.16259  0.34840  0.40928  1.0000
  C   C5        1.0  0.51088  0.97606  0.89571  1.0000
  C   C6        1.0  0.01088  0.52394  0.60429  1.0000
  C   C7        1.0  0.48911  0.02393  0.10429  1.0000
  C   C8        1.0  0.98912  0.47607  0.39571  1.0000
  C   C9        1.0  0.44304  0.94660  0.76987  1.0000
  C   C10       1.0  0.94303  0.55340  0.73013  1.0000
  C   C11       1.0  0.55696  0.05340  0.23013  1.0000
  C   C12       1.0  0.05697  0.44660  0.26987  1.0000
  C   C13       1.0  0.47371  0.20030  0.84702  1.0000
  C   C14       1.0  0.97371  0.29970  0.65298  1.0000
  C   C15       1.0  0.52629  0.79970  0.15298  1.0000
  C   C16       1.0  0.02629  0.70030  0.34702  1.0000
  C   C17       1.0  0.22320  0.98302  0.72268  1.0000
  C   C18       1.0  0.72317  0.51698  0.77732  1.0000
  C   C19       1.0  0.77682  0.01698  0.27732  1.0000
  C   C20       1.0  0.27683  0.48302  0.22268  1.0000
  C   C21       1.0  0.30067  0.30126  0.90142  1.0000
  C   C22       1.0  0.80067  0.19874  0.59858  1.0000
  C   C23       1.0  0.69933  0.69873  0.09858  1.0000
  C   C24       1.0  0.19933  0.80126  0.40142  1.0000
  N   N1        1.0  0.39322  0.04031  0.83985  1.0000
  N   N2        1.0  0.89322  0.45969  0.66015  1.0000
  N   N3        1.0  0.60678  0.95969  0.16015  1.0000
  N   N4        1.0  0.10679  0.54031  0.33985  1.0000
  N   N5        1.0  0.25637  0.92485  0.65623  1.0000
  N   N6        1.0  0.75635  0.57515  0.84377  1.0000
  N   N7        1.0  0.74364  0.07515  0.34377  1.0000
  N   N8        1.0  0.24364  0.42485  0.15623  1.0000
  O   O1        1.0  0.42259  0.79404  0.95802  1.0000
  O   O2        1.0  0.92259  0.70596  0.54198  1.0000
  O   O3        1.0  0.57740  0.20596  0.04198  1.0000
  O   O4        1.0  0.07741  0.29404  0.45802  1.0000
  O   O5        1.0  0.08407  0.24634  0.91888  1.0000
  O   O6        1.0  0.58406  0.25366  0.58112  1.0000
  O   O7        1.0  0.91593  0.75366  0.08112  1.0000
  O   O8        1.0  0.41594  0.74634  0.41888  1.0000
  O   O9        1.0  0.38936  0.43330  0.92336  1.0000
  O   O10       1.0  0.88936  0.06670  0.57664  1.0000
  O   O11       1.0  0.61063  0.56670  0.07664  1.0000
  O   O12       1.0  0.11064  0.93330  0.42335  1.0000
  O   O13       1.0  0.13004  0.81038  0.87237  1.0000
  O   O14       1.0  0.63004  0.68962  0.62763  1.0000
  O   O15       1.0  0.86996  0.18962  0.12763  1.0000
  O   O16       1.0  0.36996  0.31038  0.37237  1.0000
  O   O17       1.0  0.02816  0.06396  0.74857  1.0000
  O   O18       1.0  0.52814  0.43605  0.75143  1.0000
  O   O19       1.0  0.97185  0.93605  0.25143  1.0000
  O   O20       1.0  0.47185  0.56395  0.24857  1.0000
