data_image0
_chemical_formula_structural       CdP2H20C16O12
_chemical_formula_sum              "Cd1 P2 H20 C16 O12"
_cell_length_a       4.61463
_cell_length_b       5.82083
_cell_length_c       18.5667
_cell_angle_alpha    83.3174
_cell_angle_beta     89.1128
_cell_angle_gamma    86.237

_space_group_name_H-M_alt    "P 1"
_space_group_IT_number       1

loop_
  _space_group_symop_operation_xyz
  'x, y, z'

loop_
  _atom_site_type_symbol
  _atom_site_label
  _atom_site_symmetry_multiplicity
  _atom_site_fract_x
  _atom_site_fract_y
  _atom_site_fract_z
  _atom_site_occupancy
  Cd  Cd1       1.0  0.00001  0.00001  0.50000  1.0000
  P   P1        1.0  0.49373  0.10458  0.62823  1.0000
  P   P2        1.0  0.50629  0.89544  0.37177  1.0000
  H   H1        1.0  0.90604  0.27385  0.62424  1.0000
  H   H2        1.0  0.09397  0.72617  0.37576  1.0000
  H   H3        1.0  0.41368  0.66561  0.01915  1.0000
  H   H4        1.0  0.58632  0.33436  0.98085  1.0000
  H   H5        1.0  0.24362  0.50782  0.55264  1.0000
  H   H6        1.0  0.75641  0.49220  0.44736  1.0000
  H   H7        1.0  0.44778  0.71780  0.55929  1.0000
  H   H8        1.0  0.55223  0.28222  0.44070  1.0000
  H   H9        1.0  0.22115  0.11510  0.73737  1.0000
  H   H10       1.0  0.77887  0.88491  0.26263  1.0000
  H   H11       1.0  0.22316  0.84389  0.70375  1.0000
  H   H12       1.0  0.77684  0.15613  0.29625  1.0000
  H   H13       1.0  0.69501  0.57019  0.72105  1.0000
  H   H14       1.0  0.30500  0.42983  0.27894  1.0000
  H   H15       1.0  0.05981  0.41320  0.81457  1.0000
  H   H16       1.0  0.94019  0.58680  0.18543  1.0000
  H   H17       1.0  0.90648  0.02297  0.92343  1.0000
  H   H18       1.0  0.09349  0.97700  0.07658  1.0000
  H   H19       1.0  0.53774  0.17891  0.83200  1.0000
  H   H20       1.0  0.46224  0.82108  0.16801  1.0000
  C   C1        1.0  0.36353  0.98018  0.71570  1.0000
  C   C2        1.0  0.63647  0.01984  0.28430  1.0000
  C   C3        1.0  0.59265  0.88635  0.76977  1.0000
  C   C4        1.0  0.40735  0.11366  0.23023  1.0000
  C   C5        1.0  0.74136  0.67008  0.76521  1.0000
  C   C6        1.0  0.25864  0.32993  0.23479  1.0000
  C   C7        1.0  0.94641  0.58223  0.81707  1.0000
  C   C8        1.0  0.05358  0.41777  0.18293  1.0000
  C   C9        1.0  0.00710  0.70903  0.87419  1.0000
  C   C10       1.0  0.99288  0.29096  0.12581  1.0000
  C   C11       1.0  0.86061  0.92567  0.87871  1.0000
  C   C12       1.0  0.13937  0.07431  0.12129  1.0000
  C   C13       1.0  0.65525  0.01291  0.82679  1.0000
  C   C14       1.0  0.34474  0.98708  0.17321  1.0000
  C   C15       1.0  0.22450  0.61276  0.92909  1.0000
  C   C16       1.0  0.77550  0.38720  0.07091  1.0000
  O   O1        1.0  0.22119  0.21800  0.58735  1.0000
  O   O2        1.0  0.77883  0.78201  0.41265  1.0000
  O   O3        1.0  0.70040  0.30144  0.64293  1.0000
  O   O4        1.0  0.29962  0.69856  0.35707  1.0000
  O   O5        1.0  0.66345  0.91870  0.59003  1.0000
  O   O6        1.0  0.33656  0.08131  0.40997  1.0000
  O   O7        1.0  0.36665  0.42448  0.92406  1.0000
  O   O8        1.0  0.63332  0.57550  0.07595  1.0000
  O   O9        1.0  0.25417  0.73905  0.98275  1.0000
  O   O10       1.0  0.74584  0.26092  0.01725  1.0000
  O   O11       1.0  0.27741  0.67062  0.53406  1.0000
  O   O12       1.0  0.72260  0.32939  0.46594  1.0000
