data_image0
_chemical_formula_structural       Ag4P4H32C32O20
_chemical_formula_sum              "Ag4 P4 H32 C32 O20"
_cell_length_a       4.67157
_cell_length_b       11.0122
_cell_length_c       17.6916
_cell_angle_alpha    89.9995
_cell_angle_beta     90.5621
_cell_angle_gamma    90.0001

_space_group_name_H-M_alt    "P 1"
_space_group_IT_number       1

loop_
  _space_group_symop_operation_xyz
  'x, y, z'

loop_
  _atom_site_type_symbol
  _atom_site_label
  _atom_site_symmetry_multiplicity
  _atom_site_fract_x
  _atom_site_fract_y
  _atom_site_fract_z
  _atom_site_occupancy
  Ag  Ag1       1.0  0.74076  0.03325  0.04447  1.0000
  Ag  Ag2       1.0  0.75924  0.53325  0.45553  1.0000
  Ag  Ag3       1.0  0.25925  0.96675  0.95553  1.0000
  Ag  Ag4       1.0  0.24076  0.46674  0.54447  1.0000
  P   P1        1.0  0.93535  0.23616  0.46331  1.0000
  P   P2        1.0  0.56463  0.73616  0.03669  1.0000
  P   P3        1.0  0.06465  0.76384  0.53669  1.0000
  P   P4        1.0  0.43535  0.26384  0.96331  1.0000
  H   H1        1.0  0.50213  0.21511  0.51218  1.0000
  H   H2        1.0  0.99787  0.71512  0.98783  1.0000
  H   H3        1.0  0.49786  0.78488  0.48782  1.0000
  H   H4        1.0  0.00215  0.28488  0.01217  1.0000
  H   H5        1.0  0.94202  0.85452  0.14564  1.0000
  H   H6        1.0  0.55797  0.35451  0.35436  1.0000
  H   H7        1.0  0.05799  0.14549  0.85436  1.0000
  H   H8        1.0  0.44202  0.64549  0.64564  1.0000
  H   H9        1.0  0.25262  0.15615  0.37348  1.0000
  H   H10       1.0  0.24739  0.65615  0.12652  1.0000
  H   H11       1.0  0.74741  0.84385  0.62652  1.0000
  H   H12       1.0  0.75261  0.34385  0.87348  1.0000
  H   H13       1.0  0.13784  0.04167  0.43696  1.0000
  H   H14       1.0  0.36216  0.54168  0.06304  1.0000
  H   H15       1.0  0.86216  0.95832  0.56304  1.0000
  H   H16       1.0  0.63785  0.45832  0.93696  1.0000
  H   H17       1.0  0.72643  0.91320  0.40238  1.0000
  H   H18       1.0  0.77356  0.41320  0.09761  1.0000
  H   H19       1.0  0.27359  0.08680  0.59761  1.0000
  H   H20       1.0  0.22641  0.58679  0.90238  1.0000
  H   H21       1.0  0.35844  0.85347  0.30781  1.0000
  H   H22       1.0  0.14155  0.35346  0.19219  1.0000
  H   H23       1.0  0.64158  0.14653  0.69218  1.0000
  H   H24       1.0  0.85843  0.64653  0.80781  1.0000
  H   H25       1.0  0.55634  0.17055  0.17541  1.0000
  H   H26       1.0  0.94368  0.67055  0.32459  1.0000
  H   H27       1.0  0.44369  0.82946  0.82459  1.0000
  H   H28       1.0  0.05632  0.32945  0.67541  1.0000
  H   H29       1.0  0.92108  0.23131  0.27154  1.0000
  H   H30       1.0  0.57895  0.73130  0.22846  1.0000
  H   H31       1.0  0.07894  0.76870  0.72846  1.0000
  H   H32       1.0  0.42107  0.26870  0.77154  1.0000
  C   C1        1.0  0.06410  0.11734  0.40124  1.0000
  C   C2        1.0  0.43588  0.61733  0.09877  1.0000
  C   C3        1.0  0.93592  0.88266  0.59876  1.0000
  C   C4        1.0  0.56410  0.38268  0.90123  1.0000
  C   C5        1.0  0.84836  0.07647  0.34327  1.0000
  C   C6        1.0  0.65163  0.57648  0.15673  1.0000
  C   C7        1.0  0.15165  0.92353  0.65672  1.0000
  C   C8        1.0  0.34835  0.42353  0.84328  1.0000
  C   C9        1.0  0.69001  0.96952  0.35264  1.0000
  C   C10       1.0  0.80996  0.46953  0.14736  1.0000
  C   C11       1.0  0.31000  0.03048  0.64736  1.0000
  C   C12       1.0  0.19001  0.53047  0.85264  1.0000
  C   C13       1.0  0.48574  0.93499  0.29902  1.0000
  C   C14       1.0  0.01425  0.43499  0.20099  1.0000
  C   C15       1.0  0.51427  0.06502  0.70098  1.0000
  C   C16       1.0  0.98573  0.56501  0.79902  1.0000
  C   C17       1.0  0.43887  0.00678  0.23449  1.0000
  C   C18       1.0  0.06110  0.50678  0.26551  1.0000
  C   C19       1.0  0.56112  0.99323  0.76550  1.0000
  C   C20       1.0  0.93886  0.49322  0.73450  1.0000
  C   C21       1.0  0.59653  0.11408  0.22504  1.0000
  C   C22       1.0  0.90345  0.61408  0.27496  1.0000
  C   C23       1.0  0.40348  0.88593  0.77496  1.0000
  C   C24       1.0  0.09653  0.38592  0.72504  1.0000
  C   C25       1.0  0.79920  0.14797  0.27883  1.0000
  C   C26       1.0  0.70080  0.64797  0.22117  1.0000
  C   C27       1.0  0.20082  0.85203  0.72116  1.0000
  C   C28       1.0  0.29921  0.35203  0.77884  1.0000
  C   C29       1.0  0.22630  0.97415  0.17559  1.0000
  C   C30       1.0  0.27369  0.47414  0.32441  1.0000
  C   C31       1.0  0.77372  0.02586  0.82441  1.0000
  C   C32       1.0  0.72627  0.52585  0.67559  1.0000
  O   O1        1.0  0.80420  0.33996  0.41661  1.0000
  O   O2        1.0  0.69581  0.83997  0.08340  1.0000
  O   O3        1.0  0.19582  0.66004  0.58339  1.0000
  O   O4        1.0  0.30419  0.16004  0.91661  1.0000
  O   O5        1.0  0.19431  0.27359  0.51239  1.0000
  O   O6        1.0  0.30567  0.77360  0.98761  1.0000
  O   O7        1.0  0.80568  0.72640  0.48761  1.0000
  O   O8        1.0  0.69434  0.22640  0.01239  1.0000
  O   O9        1.0  0.69952  0.17539  0.51464  1.0000
  O   O10       1.0  0.80047  0.67538  0.98536  1.0000
  O   O11       1.0  0.30048  0.82461  0.48536  1.0000
  O   O12       1.0  0.19952  0.32461  0.01464  1.0000
  O   O13       1.0  0.18177  0.04070  0.11955  1.0000
  O   O14       1.0  0.31819  0.54070  0.38046  1.0000
  O   O15       1.0  0.81824  0.95930  0.88045  1.0000
  O   O16       1.0  0.68177  0.45928  0.61954  1.0000
  O   O17       1.0  0.09060  0.87005  0.18713  1.0000
  O   O18       1.0  0.40939  0.37003  0.31287  1.0000
  O   O19       1.0  0.90942  0.12997  0.81287  1.0000
  O   O20       1.0  0.59058  0.62996  0.68713  1.0000
