data_image0
_chemical_formula_structural       Hg3H16C32N4O12F18
_chemical_formula_sum              "Hg3 H16 C32 N4 O12 F18"
_cell_length_a       9.31133
_cell_length_b       10.7012
_cell_length_c       11.857
_cell_angle_alpha    110.26
_cell_angle_beta     102.428
_cell_angle_gamma    101.356

_space_group_name_H-M_alt    "P 1"
_space_group_IT_number       1

loop_
  _space_group_symop_operation_xyz
  'x, y, z'

loop_
  _atom_site_type_symbol
  _atom_site_label
  _atom_site_symmetry_multiplicity
  _atom_site_fract_x
  _atom_site_fract_y
  _atom_site_fract_z
  _atom_site_occupancy
  Hg  Hg1       1.0  0.00000  0.00000  1.00000  1.0000
  Hg  Hg2       1.0  0.98526  0.38048  0.27903  1.0000
  Hg  Hg3       1.0  0.01474  0.61951  0.72098  1.0000
  H   H1        1.0  0.83998  0.67082  0.01534  1.0000
  H   H2        1.0  0.16002  0.32917  0.98466  1.0000
  H   H3        1.0  0.59122  0.50201  0.87049  1.0000
  H   H4        1.0  0.40878  0.49799  0.12951  1.0000
  H   H5        1.0  0.50078  0.27481  0.89060  1.0000
  H   H6        1.0  0.49923  0.72519  0.10940  1.0000
  H   H7        1.0  0.67370  0.22776  0.05633  1.0000
  H   H8        1.0  0.32630  0.77224  0.94368  1.0000
  H   H9        1.0  0.05058  0.79540  0.12694  1.0000
  H   H10       1.0  0.94942  0.20460  0.87306  1.0000
  H   H11       1.0  0.30469  0.94664  0.27755  1.0000
  H   H12       1.0  0.69531  0.05336  0.72245  1.0000
  H   H13       1.0  0.43796  0.87066  0.44210  1.0000
  H   H14       1.0  0.56204  0.12934  0.55791  1.0000
  H   H15       1.0  0.30098  0.64651  0.44615  1.0000
  H   H16       1.0  0.69902  0.35349  0.55385  1.0000
  C   C1        1.0  0.89088  0.54029  0.11393  1.0000
  C   C2        1.0  0.10912  0.45971  0.88607  1.0000
  C   C3        1.0  0.80165  0.57234  0.02292  1.0000
  C   C4        1.0  0.19835  0.42766  0.97709  1.0000
  C   C5        1.0  0.66060  0.47734  0.94169  1.0000
  C   C6        1.0  0.33940  0.52266  0.05831  1.0000
  C   C7        1.0  0.61034  0.35156  0.95233  1.0000
  C   C8        1.0  0.38966  0.64844  0.04767  1.0000
  C   C9        1.0  0.70418  0.32492  0.04433  1.0000
  C   C10       1.0  0.29581  0.67508  0.95567  1.0000
  C   C11       1.0  0.04253  0.63781  0.20302  1.0000
  C   C12       1.0  0.95747  0.36219  0.79699  1.0000
  C   C13       1.0  0.10966  0.76336  0.19674  1.0000
  C   C14       1.0  0.89035  0.23664  0.80326  1.0000
  C   C15       1.0  0.25272  0.84903  0.28283  1.0000
  C   C16       1.0  0.74728  0.15097  0.71717  1.0000
  C   C17       1.0  0.32554  0.80796  0.37368  1.0000
  C   C18       1.0  0.67446  0.19204  0.62632  1.0000
  C   C19       1.0  0.25139  0.68271  0.37593  1.0000
  C   C20       1.0  0.74861  0.31729  0.62407  1.0000
  C   C21       1.0  0.14661  0.35604  0.50878  1.0000
  C   C22       1.0  0.85337  0.64393  0.49120  1.0000
  C   C23       1.0  0.20640  0.27128  0.58290  1.0000
  C   C24       1.0  0.79360  0.72872  0.41710  1.0000
  C   C25       1.0  0.25679  0.21715  0.19644  1.0000
  C   C26       1.0  0.74320  0.78285  0.80356  1.0000
  C   C27       1.0  0.41740  0.30544  0.29398  1.0000
  C   C28       1.0  0.58260  0.69456  0.70602  1.0000
  C   C29       1.0  0.80101  0.01441  0.16050  1.0000
  C   C30       1.0  0.19899  0.98561  0.83950  1.0000
  C   C31       1.0  0.68889  0.03445  0.24091  1.0000
  C   C32       1.0  0.31112  0.96557  0.75909  1.0000
  N   N1        1.0  0.83988  0.41751  0.12244  1.0000
  N   N2        1.0  0.16011  0.58249  0.87756  1.0000
  N   N3        1.0  0.11430  0.60109  0.29243  1.0000
  N   N4        1.0  0.88570  0.39891  0.70757  1.0000
  O   O1        1.0  0.07301  0.27481  0.39209  1.0000
  O   O2        1.0  0.92699  0.72517  0.60789  1.0000
  O   O3        1.0  0.17124  0.48322  0.56333  1.0000
  O   O4        1.0  0.82872  0.51676  0.43666  1.0000
  O   O5        1.0  0.22732  0.08613  0.16334  1.0000
  O   O6        1.0  0.77268  0.91387  0.83666  1.0000
  O   O7        1.0  0.17669  0.28233  0.15536  1.0000
  O   O8        1.0  0.82330  0.71766  0.84463  1.0000
  O   O9        1.0  0.83788  0.90420  0.13310  1.0000
  O   O10       1.0  0.16214  0.09583  0.86690  1.0000
  O   O11       1.0  0.83895  0.11298  0.12582  1.0000
  O   O12       1.0  0.16104  0.88703  0.87417  1.0000
  F   F1        1.0  0.28546  0.19029  0.52278  1.0000
  F   F2        1.0  0.71454  0.80970  0.47722  1.0000
  F   F3        1.0  0.08610  0.18619  0.59437  1.0000
  F   F4        1.0  0.91391  0.81382  0.40565  1.0000
  F   F5        1.0  0.30220  0.35648  0.70125  1.0000
  F   F6        1.0  0.69781  0.64354  0.29874  1.0000
  F   F7        1.0  0.46923  0.24678  0.37306  1.0000
  F   F8        1.0  0.53076  0.75323  0.62695  1.0000
  F   F9        1.0  0.52089  0.32068  0.23010  1.0000
  F   F10       1.0  0.47911  0.67932  0.76990  1.0000
  F   F11       1.0  0.41707  0.43546  0.36664  1.0000
  F   F12       1.0  0.58292  0.56454  0.63336  1.0000
  F   F13       1.0  0.67766  0.94729  0.30103  1.0000
  F   F14       1.0  0.32238  0.05274  0.69898  1.0000
  F   F15       1.0  0.73040  0.16683  0.33019  1.0000
  F   F16       1.0  0.26959  0.83319  0.66980  1.0000
  F   F17       1.0  0.54382  0.00788  0.16318  1.0000
  F   F18       1.0  0.45619  0.99211  0.83682  1.0000
