data_image0
_chemical_formula_structural       Cd2H28C36N4O14
_chemical_formula_sum              "Cd2 H28 C36 N4 O14"
_cell_length_a       8.61462
_cell_length_b       10.2207
_cell_length_c       10.8452
_cell_angle_alpha    65.7384
_cell_angle_beta     87.0233
_cell_angle_gamma    89.5133

_space_group_name_H-M_alt    "P 1"
_space_group_IT_number       1

loop_
  _space_group_symop_operation_xyz
  'x, y, z'

loop_
  _atom_site_type_symbol
  _atom_site_label
  _atom_site_symmetry_multiplicity
  _atom_site_fract_x
  _atom_site_fract_y
  _atom_site_fract_z
  _atom_site_occupancy
  Cd  Cd1       1.0  0.27290  0.07022  0.65636  1.0000
  Cd  Cd2       1.0  0.72709  0.92978  0.34364  1.0000
  H   H1        1.0  0.93198  0.66590  0.86515  1.0000
  H   H2        1.0  0.06802  0.33410  0.13485  1.0000
  H   H3        1.0  0.62079  0.45486  0.98786  1.0000
  H   H4        1.0  0.37921  0.54513  0.01213  1.0000
  H   H5        1.0  0.77041  0.00803  0.85418  1.0000
  H   H6        1.0  0.22959  0.99196  0.14582  1.0000
  H   H7        1.0  0.64101  0.90994  0.99231  1.0000
  H   H8        1.0  0.35899  0.09005  0.00769  1.0000
  H   H9        1.0  0.34997  0.01684  0.41837  1.0000
  H   H10       1.0  0.65004  0.98317  0.58163  1.0000
  H   H11       1.0  0.16745  0.00336  0.43860  1.0000
  H   H12       1.0  0.83256  0.99665  0.56140  1.0000
  H   H13       1.0  0.50032  0.23379  0.37436  1.0000
  H   H14       1.0  0.49968  0.76621  0.62564  1.0000
  H   H15       1.0  0.58105  0.48084  0.21350  1.0000
  H   H16       1.0  0.41894  0.51916  0.78650  1.0000
  H   H17       1.0  0.45654  0.69291  0.23917  1.0000
  H   H18       1.0  0.54345  0.30709  0.76083  1.0000
  H   H19       1.0  0.26837  0.78247  0.37046  1.0000
  H   H20       1.0  0.73163  0.21753  0.62954  1.0000
  H   H21       1.0  0.07660  0.73346  0.56046  1.0000
  H   H22       1.0  0.92340  0.26654  0.43953  1.0000
  H   H23       1.0  0.92230  0.55201  0.76279  1.0000
  H   H24       1.0  0.07769  0.44799  0.23721  1.0000
  H   H25       1.0  0.88109  0.29470  0.92823  1.0000
  H   H26       1.0  0.11891  0.70530  0.07177  1.0000
  H   H27       1.0  0.02999  0.10484  0.88519  1.0000
  H   H28       1.0  0.97001  0.89516  0.11481  1.0000
  C   C1        1.0  0.00783  0.89018  0.77734  1.0000
  C   C2        1.0  0.99218  0.10982  0.22267  1.0000
  C   C3        1.0  0.89044  0.77304  0.84675  1.0000
  C   C4        1.0  0.10956  0.22696  0.15325  1.0000
  C   C5        1.0  0.74417  0.78715  0.88988  1.0000
  C   C6        1.0  0.25583  0.21284  0.11012  1.0000
  C   C7        1.0  0.63997  0.65892  0.94572  1.0000
  C   C8        1.0  0.36003  0.34107  0.05428  1.0000
  C   C9        1.0  0.67904  0.92411  0.88883  1.0000
  C   C10       1.0  0.32096  0.07588  0.11117  1.0000
  C   C11       1.0  0.54067  0.98576  0.80206  1.0000
  C   C12       1.0  0.45933  0.01423  0.19794  1.0000
  C   C13       1.0  0.45069  0.32682  0.38616  1.0000
  C   C14       1.0  0.54931  0.67319  0.61384  1.0000
  C   C15       1.0  0.49400  0.46663  0.29443  1.0000
  C   C16       1.0  0.50600  0.53337  0.70557  1.0000
  C   C17       1.0  0.42602  0.58275  0.30905  1.0000
  C   C18       1.0  0.57397  0.41725  0.69095  1.0000
  C   C19       1.0  0.31568  0.55807  0.41773  1.0000
  C   C20       1.0  0.68432  0.44193  0.58228  1.0000
  C   C21       1.0  0.23962  0.67225  0.43978  1.0000
  C   C22       1.0  0.76038  0.32775  0.56022  1.0000
  C   C23       1.0  0.13335  0.64487  0.54560  1.0000
  C   C24       1.0  0.86664  0.35513  0.45440  1.0000
  C   C25       1.0  0.09708  0.50064  0.63943  1.0000
  C   C26       1.0  0.90292  0.49936  0.36057  1.0000
  C   C27       1.0  0.98773  0.46639  0.75013  1.0000
  C   C28       1.0  0.01226  0.53362  0.24987  1.0000
  C   C29       1.0  0.96221  0.32516  0.84014  1.0000
  C   C30       1.0  0.03779  0.67484  0.15987  1.0000
  C   C31       1.0  0.04482  0.21790  0.81645  1.0000
  C   C32       1.0  0.95518  0.78210  0.18355  1.0000
  C   C33       1.0  0.17215  0.38415  0.62233  1.0000
  C   C34       1.0  0.82785  0.61586  0.37767  1.0000
  C   C35       1.0  0.28125  0.41327  0.50775  1.0000
  C   C36       1.0  0.71875  0.58673  0.49225  1.0000
  N   N1        1.0  0.34758  0.30118  0.48956  1.0000
  N   N2        1.0  0.65242  0.69882  0.51044  1.0000
  N   N3        1.0  0.14404  0.24633  0.71033  1.0000
  N   N4        1.0  0.85596  0.75368  0.28967  1.0000
  O   O1        1.0  0.13374  0.88256  0.83625  1.0000
  O   O2        1.0  0.86626  0.11743  0.16376  1.0000
  O   O3        1.0  0.98092  0.98745  0.66155  1.0000
  O   O4        1.0  0.01908  0.01256  0.33846  1.0000
  O   O5        1.0  0.49966  0.66969  0.97466  1.0000
  O   O6        1.0  0.50035  0.33029  0.02534  1.0000
  O   O7        1.0  0.70450  0.53503  0.96033  1.0000
  O   O8        1.0  0.29551  0.46495  0.03967  1.0000
  O   O9        1.0  0.51242  0.94558  0.70716  1.0000
  O   O10       1.0  0.48758  0.05441  0.29284  1.0000
  O   O11       1.0  0.45892  0.07769  0.82406  1.0000
  O   O12       1.0  0.54108  0.92230  0.17594  1.0000
  O   O13       1.0  0.26396  0.98618  0.49000  1.0000
  O   O14       1.0  0.73605  0.01383  0.51001  1.0000
