data_image0
_chemical_formula_structural       Cd2H28C32N4O14
_chemical_formula_sum              "Cd2 H28 C32 N4 O14"
_cell_length_a       9.14799
_cell_length_b       9.5196
_cell_length_c       10.5332
_cell_angle_alpha    117.193
_cell_angle_beta     89.8581
_cell_angle_gamma    90.2221

_space_group_name_H-M_alt    "P 1"
_space_group_IT_number       1

loop_
  _space_group_symop_operation_xyz
  'x, y, z'

loop_
  _atom_site_type_symbol
  _atom_site_label
  _atom_site_symmetry_multiplicity
  _atom_site_fract_x
  _atom_site_fract_y
  _atom_site_fract_z
  _atom_site_occupancy
  Cd  Cd1       1.0  0.74977  0.08180  0.33617  1.0000
  Cd  Cd2       1.0  0.25024  0.91820  0.66383  1.0000
  H   H1        1.0  0.23922  0.04793  0.18743  1.0000
  H   H2        1.0  0.76079  0.95206  0.81257  1.0000
  H   H3        1.0  0.34497  0.94961  0.02963  1.0000
  H   H4        1.0  0.65504  0.05039  0.97037  1.0000
  H   H5        1.0  0.38430  0.44053  0.99746  1.0000
  H   H6        1.0  0.61568  0.55947  0.00253  1.0000
  H   H7        1.0  0.08207  0.65715  0.11450  1.0000
  H   H8        1.0  0.91791  0.34287  0.88550  1.0000
  H   H9        1.0  0.84354  0.97956  0.54379  1.0000
  H   H10       1.0  0.15646  0.02044  0.45622  1.0000
  H   H11       1.0  0.67116  0.97944  0.54696  1.0000
  H   H12       1.0  0.32885  0.02056  0.45305  1.0000
  H   H13       1.0  0.97287  0.17501  0.13705  1.0000
  H   H14       1.0  0.02714  0.82501  0.86294  1.0000
  H   H15       1.0  0.09237  0.40918  0.13314  1.0000
  H   H16       1.0  0.90764  0.59084  0.86687  1.0000
  H   H17       1.0  0.02591  0.68177  0.32946  1.0000
  H   H18       1.0  0.97409  0.31825  0.67056  1.0000
  H   H19       1.0  0.84545  0.70459  0.50992  1.0000
  H   H20       1.0  0.15454  0.29542  0.49009  1.0000
  H   H21       1.0  0.67467  0.71049  0.63121  1.0000
  H   H22       1.0  0.32529  0.28951  0.36879  1.0000
  H   H23       1.0  0.48423  0.70743  0.79635  1.0000
  H   H24       1.0  0.51574  0.29254  0.20364  1.0000
  H   H25       1.0  0.40229  0.44253  0.77658  1.0000
  H   H26       1.0  0.59772  0.55742  0.22340  1.0000
  H   H27       1.0  0.52995  0.20014  0.60397  1.0000
  H   H28       1.0  0.47008  0.79982  0.39601  1.0000
  C   C1        1.0  0.46143  0.00138  0.22194  1.0000
  C   C2        1.0  0.53858  0.99862  0.77807  1.0000
  C   C3        1.0  0.32063  0.95435  0.13391  1.0000
  C   C4        1.0  0.67937  0.04565  0.86608  1.0000
  C   C5        1.0  0.25751  0.79973  0.11420  1.0000
  C   C6        1.0  0.74249  0.20026  0.88579  1.0000
  C   C7        1.0  0.35908  0.66340  0.05737  1.0000
  C   C8        1.0  0.64091  0.33659  0.94262  1.0000
  C   C9        1.0  0.11855  0.77734  0.14401  1.0000
  C   C10       1.0  0.88145  0.22267  0.85598  1.0000
  C   C11       1.0  0.00384  0.90067  0.21184  1.0000
  C   C12       1.0  0.99616  0.09935  0.78816  1.0000
  C   C13       1.0  0.94788  0.29440  0.21879  1.0000
  C   C14       1.0  0.05212  0.70561  0.78122  1.0000
  C   C15       1.0  0.01365  0.42571  0.21660  1.0000
  C   C16       1.0  0.98636  0.57431  0.78341  1.0000
  C   C17       1.0  0.97614  0.57492  0.32375  1.0000
  C   C18       1.0  0.02386  0.42510  0.67626  1.0000
  C   C19       1.0  0.87443  0.58800  0.42688  1.0000
  C   C20       1.0  0.12557  0.41202  0.57313  1.0000
  C   C21       1.0  0.81336  0.45060  0.42218  1.0000
  C   C22       1.0  0.18664  0.54941  0.57782  1.0000
  C   C23       1.0  0.70402  0.45668  0.52891  1.0000
  C   C24       1.0  0.29599  0.54332  0.47109  1.0000
  C   C25       1.0  0.64200  0.59910  0.62832  1.0000
  C   C26       1.0  0.35799  0.40090  0.37168  1.0000
  C   C27       1.0  0.53362  0.59677  0.72025  1.0000
  C   C28       1.0  0.46636  0.40320  0.27974  1.0000
  C   C29       1.0  0.48938  0.45185  0.71044  1.0000
  C   C30       1.0  0.51062  0.54811  0.28955  1.0000
  C   C31       1.0  0.55857  0.31530  0.61241  1.0000
  C   C32       1.0  0.44144  0.68467  0.38757  1.0000
  N   N1        1.0  0.85125  0.30636  0.31899  1.0000
  N   N2        1.0  0.14875  0.69364  0.68101  1.0000
  N   N3        1.0  0.66342  0.31819  0.52444  1.0000
  N   N4        1.0  0.33659  0.68180  0.47556  1.0000
  O   O1        1.0  0.56948  0.04683  0.17334  1.0000
  O   O2        1.0  0.43053  0.95316  0.82667  1.0000
  O   O3        1.0  0.46596  0.99782  0.34125  1.0000
  O   O4        1.0  0.53405  0.00218  0.65876  1.0000
  O   O5        1.0  0.49192  0.68467  0.04469  1.0000
  O   O6        1.0  0.50808  0.31532  0.95532  1.0000
  O   O7        1.0  0.30168  0.52278  0.02503  1.0000
  O   O8        1.0  0.69830  0.47722  0.97497  1.0000
  O   O9        1.0  0.88699  0.88439  0.14166  1.0000
  O   O10       1.0  0.11302  0.11564  0.85834  1.0000
  O   O11       1.0  0.02413  0.01135  0.33800  1.0000
  O   O12       1.0  0.97587  0.98867  0.66200  1.0000
  O   O13       1.0  0.75650  0.95919  0.48088  1.0000
  O   O14       1.0  0.24350  0.04081  0.51912  1.0000
