data_image0
_chemical_formula_structural       NiH14C6N2O10
_chemical_formula_sum              "Ni1 H14 C6 N2 O10"
_cell_length_a       4.96029
_cell_length_b       5.33958
_cell_length_c       11.6701
_cell_angle_alpha    95.3776
_cell_angle_beta     80.1678
_cell_angle_gamma    95.2312

_space_group_name_H-M_alt    "P 1"
_space_group_IT_number       1

loop_
  _space_group_symop_operation_xyz
  'x, y, z'

loop_
  _atom_site_type_symbol
  _atom_site_label
  _atom_site_symmetry_multiplicity
  _atom_site_fract_x
  _atom_site_fract_y
  _atom_site_fract_z
  _atom_site_occupancy
  Ni  Ni1       1.0  0.99997  0.50001  0.00001  1.0000
  H   H1        1.0  0.79492  0.45450  0.63737  1.0000
  H   H2        1.0  0.20519  0.54548  0.36260  1.0000
  H   H3        1.0  0.48008  0.58503  0.69633  1.0000
  H   H4        1.0  0.51999  0.41491  0.30364  1.0000
  H   H5        1.0  0.52002  0.63053  0.13068  1.0000
  H   H6        1.0  0.47993  0.36953  0.86933  1.0000
  H   H7        1.0  0.57945  0.88379  0.56864  1.0000
  H   H8        1.0  0.42057  0.11619  0.43136  1.0000
  H   H9        1.0  0.78129  0.07784  0.94040  1.0000
  H   H10       1.0  0.21866  0.92222  0.05962  1.0000
  H   H11       1.0  0.77011  0.06219  0.07326  1.0000
  H   H12       1.0  0.22987  0.93785  0.92675  1.0000
  H   H13       1.0  0.78058  0.75629  0.18998  1.0000
  H   H14       1.0  0.21938  0.24373  0.81005  1.0000
  C   C1        1.0  0.81146  0.70987  0.79009  1.0000
  C   C2        1.0  0.18852  0.29011  0.20992  1.0000
  C   C3        1.0  0.99911  0.89839  0.54248  1.0000
  C   C4        1.0  0.00094  0.10161  0.45752  1.0000
  C   C5        1.0  0.70278  0.62911  0.67553  1.0000
  C   C6        1.0  0.29729  0.37085  0.32445  1.0000
  N   N1        1.0  0.74836  0.81814  0.59264  1.0000
  N   N2        1.0  0.25169  0.18181  0.40733  1.0000
  O   O1        1.0  0.21592  0.81783  0.56003  1.0000
  O   O2        1.0  0.78411  0.18215  0.43995  1.0000
  O   O3        1.0  0.90025  0.93390  0.81072  1.0000
  O   O4        1.0  0.09970  0.06608  0.18930  1.0000
  O   O5        1.0  0.71352  0.70873  0.11646  1.0000
  O   O6        1.0  0.28643  0.29131  0.88357  1.0000
  O   O7        1.0  0.79613  0.52920  0.85728  1.0000
  O   O8        1.0  0.20382  0.47079  0.14272  1.0000
  O   O9        1.0  0.74419  0.18047  0.01702  1.0000
  O   O10       1.0  0.25574  0.81957  0.98298  1.0000
