data_image0
_chemical_formula_structural       Zn2H24C12N4O18
_chemical_formula_sum              "Zn2 H24 C12 N4 O18"
_cell_length_a       4.99019
_cell_length_b       4.99033
_cell_length_c       24.0031
_cell_angle_alpha    94.1431
_cell_angle_beta     94.1412
_cell_angle_gamma    81.0444

_space_group_name_H-M_alt    "P 1"
_space_group_IT_number       1

loop_
  _space_group_symop_operation_xyz
  'x, y, z'

loop_
  _atom_site_type_symbol
  _atom_site_label
  _atom_site_symmetry_multiplicity
  _atom_site_fract_x
  _atom_site_fract_y
  _atom_site_fract_z
  _atom_site_occupancy
  Zn  Zn1       1.0  0.10893  0.89108  0.75000  1.0000
  Zn  Zn2       1.0  0.89108  0.10893  0.25000  1.0000
  H   H1        1.0  0.79107  0.05207  0.92123  1.0000
  H   H2        1.0  0.94793  0.20896  0.57877  1.0000
  H   H3        1.0  0.20893  0.94792  0.07877  1.0000
  H   H4        1.0  0.05208  0.79105  0.42123  1.0000
  H   H5        1.0  0.51732  0.88925  0.89168  1.0000
  H   H6        1.0  0.11079  0.48266  0.60832  1.0000
  H   H7        1.0  0.48266  0.11075  0.10831  1.0000
  H   H8        1.0  0.88922  0.51733  0.39168  1.0000
  H   H9        1.0  0.26098  0.27990  0.82564  1.0000
  H   H10       1.0  0.72011  0.73904  0.67436  1.0000
  H   H11       1.0  0.73904  0.72010  0.17436  1.0000
  H   H12       1.0  0.27990  0.26097  0.32563  1.0000
  H   H13       1.0  0.55054  0.07626  0.80958  1.0000
  H   H14       1.0  0.92375  0.44949  0.69042  1.0000
  H   H15       1.0  0.44946  0.92375  0.19042  1.0000
  H   H16       1.0  0.07626  0.55053  0.30958  1.0000
  H   H17       1.0  0.59995  0.60034  0.96105  1.0000
  H   H18       1.0  0.39966  0.40003  0.53895  1.0000
  H   H19       1.0  0.40004  0.39965  0.03895  1.0000
  H   H20       1.0  0.60034  0.59997  0.46106  1.0000
  H   H21       1.0  0.40112  0.40693  0.76411  1.0000
  H   H22       1.0  0.59307  0.59888  0.73588  1.0000
  H   H23       1.0  0.59889  0.59307  0.23588  1.0000
  H   H24       1.0  0.40694  0.40112  0.26412  1.0000
  C   C1        1.0  0.90005  0.75873  0.85419  1.0000
  C   C2        1.0  0.24129  0.09997  0.64581  1.0000
  C   C3        1.0  0.09994  0.24127  0.14581  1.0000
  C   C4        1.0  0.75873  0.90004  0.35418  1.0000
  C   C5        1.0  0.73425  0.85481  0.90512  1.0000
  C   C6        1.0  0.14516  0.26576  0.59488  1.0000
  C   C7        1.0  0.26572  0.14517  0.09487  1.0000
  C   C8        1.0  0.85483  0.73424  0.40512  1.0000
  C   C9        1.0  0.00606  0.60307  0.97797  1.0000
  C   C10       1.0  0.39692  0.99395  0.52203  1.0000
  C   C11       1.0  0.99393  0.39691  0.02202  1.0000
  C   C12       1.0  0.60307  0.00606  0.47798  1.0000
  N   N1        1.0  0.76982  0.66477  0.94830  1.0000
  N   N2        1.0  0.33523  0.23018  0.55170  1.0000
  N   N3        1.0  0.23015  0.33521  0.05170  1.0000
  N   N4        1.0  0.66479  0.76982  0.44830  1.0000
  O   O1        1.0  0.35751  0.15266  0.79699  1.0000
  O   O2        1.0  0.84733  0.64250  0.70301  1.0000
  O   O3        1.0  0.64250  0.84734  0.20301  1.0000
  O   O4        1.0  0.15268  0.35750  0.29699  1.0000
  O   O5        1.0  0.41128  0.58870  0.74999  1.0000
  O   O6        1.0  0.58871  0.41129  0.25000  1.0000
  O   O7        1.0  0.86248  0.93246  0.81500  1.0000
  O   O8        1.0  0.06759  0.13752  0.68500  1.0000
  O   O9        1.0  0.13752  0.06755  0.18500  1.0000
  O   O10       1.0  0.93245  0.86247  0.31500  1.0000
  O   O11       1.0  0.05382  0.53843  0.85261  1.0000
  O   O12       1.0  0.46158  0.94619  0.64738  1.0000
  O   O13       1.0  0.94618  0.46157  0.14739  1.0000
  O   O14       1.0  0.53841  0.05382  0.35261  1.0000
  O   O15       1.0  0.21759  0.69888  0.97194  1.0000
  O   O16       1.0  0.30109  0.78243  0.52807  1.0000
  O   O17       1.0  0.78239  0.30109  0.02807  1.0000
  O   O18       1.0  0.69892  0.21757  0.47193  1.0000
