data_image0
_chemical_formula_structural       HgH8C12Se2N4Cl2
_chemical_formula_sum              "Hg1 H8 C12 Se2 N4 Cl2"
_cell_length_a       3.84379
_cell_length_b       9.36166
_cell_length_c       10.6485
_cell_angle_alpha    79.0988
_cell_angle_beta     85.1739
_cell_angle_gamma    81.7806

_space_group_name_H-M_alt    "P 1"
_space_group_IT_number       1

loop_
  _space_group_symop_operation_xyz
  'x, y, z'

loop_
  _atom_site_type_symbol
  _atom_site_label
  _atom_site_symmetry_multiplicity
  _atom_site_fract_x
  _atom_site_fract_y
  _atom_site_fract_z
  _atom_site_occupancy
  Hg  Hg1       1.0  0.00000  0.00000  1.00000  1.0000
  H   H1        1.0  0.32953  0.61712  0.49915  1.0000
  H   H2        1.0  0.67050  0.38287  0.50085  1.0000
  H   H3        1.0  0.08008  0.41139  0.64790  1.0000
  H   H4        1.0  0.91991  0.58862  0.35210  1.0000
  H   H5        1.0  0.84437  0.43900  0.86513  1.0000
  H   H6        1.0  0.15558  0.56101  0.13486  1.0000
  H   H7        1.0  0.86810  0.66912  0.94880  1.0000
  H   H8        1.0  0.13187  0.33088  0.05120  1.0000
  C   C1        1.0  0.23080  0.62694  0.59648  1.0000
  C   C2        1.0  0.76921  0.37305  0.40352  1.0000
  C   C3        1.0  0.09240  0.51504  0.67876  1.0000
  C   C4        1.0  0.90758  0.48496  0.32124  1.0000
  C   C5        1.0  0.96088  0.53023  0.80578  1.0000
  C   C6        1.0  0.03910  0.46977  0.19422  1.0000
  C   C7        1.0  0.97340  0.65609  0.85280  1.0000
  C   C8        1.0  0.02659  0.34392  0.14719  1.0000
  C   C9        1.0  0.24558  0.76039  0.64058  1.0000
  C   C10       1.0  0.75444  0.23961  0.35942  1.0000
  C   C11       1.0  0.12075  0.77427  0.77156  1.0000
  C   C12       1.0  0.87927  0.22573  0.22844  1.0000
  Se  Se1       1.0  0.34758  0.01954  0.66494  1.0000
  Se  Se2       1.0  0.65244  0.98045  0.33506  1.0000
  N   N1        1.0  0.15611  0.90288  0.80310  1.0000
  N   N2        1.0  0.84389  0.09712  0.19690  1.0000
  N   N3        1.0  0.37077  0.87736  0.56953  1.0000
  N   N4        1.0  0.62926  0.12263  0.43047  1.0000
  Cl  Cl1       1.0  0.50236  0.81302  0.11501  1.0000
  Cl  Cl2       1.0  0.49765  0.18699  0.88498  1.0000
