data_image0
_chemical_formula_structural       Hg4H16C24Se4N8Cl8
_chemical_formula_sum              "Hg4 H16 C24 Se4 N8 Cl8"
_cell_length_a       3.91255
_cell_length_b       14.5751
_cell_length_c       16.4514
_cell_angle_alpha    90.0018
_cell_angle_beta     89.9979
_cell_angle_gamma    90.0017

_space_group_name_H-M_alt    "P 1"
_space_group_IT_number       1

loop_
  _space_group_symop_operation_xyz
  'x, y, z'

loop_
  _atom_site_type_symbol
  _atom_site_label
  _atom_site_symmetry_multiplicity
  _atom_site_fract_x
  _atom_site_fract_y
  _atom_site_fract_z
  _atom_site_occupancy
  Hg  Hg1       1.0  0.12305  0.77312  0.77887  1.0000
  Hg  Hg2       1.0  0.37693  0.22688  0.27887  1.0000
  Hg  Hg3       1.0  0.87692  0.27312  0.72113  1.0000
  Hg  Hg4       1.0  0.62305  0.72688  0.22112  1.0000
  H   H1        1.0  0.65314  0.20623  0.93223  1.0000
  H   H2        1.0  0.84684  0.79377  0.43223  1.0000
  H   H3        1.0  0.34696  0.70623  0.56777  1.0000
  H   H4        1.0  0.15313  0.29377  0.06776  1.0000
  H   H5        1.0  0.45626  0.12487  0.05719  1.0000
  H   H6        1.0  0.04368  0.87513  0.55720  1.0000
  H   H7        1.0  0.54378  0.62486  0.44280  1.0000
  H   H8        1.0  0.95627  0.37513  0.94280  1.0000
  H   H9        1.0  0.56776  0.95910  0.07688  1.0000
  H   H10       1.0  0.93218  0.04090  0.57690  1.0000
  H   H11       1.0  0.43229  0.45909  0.42311  1.0000
  H   H12       1.0  0.06775  0.54090  0.92312  1.0000
  H   H13       1.0  0.87121  0.86720  0.97280  1.0000
  H   H14       1.0  0.62878  0.13281  0.47281  1.0000
  H   H15       1.0  0.12883  0.36718  0.52720  1.0000
  H   H16       1.0  0.37116  0.63282  0.02720  1.0000
  C   C1        1.0  0.70293  0.13347  0.94168  1.0000
  C   C2        1.0  0.79704  0.86653  0.44169  1.0000
  C   C3        1.0  0.29713  0.63346  0.55832  1.0000
  C   C4        1.0  0.20293  0.36653  0.05831  1.0000
  C   C5        1.0  0.59578  0.08788  0.01011  1.0000
  C   C6        1.0  0.90421  0.91212  0.51012  1.0000
  C   C7        1.0  0.40431  0.58787  0.48989  1.0000
  C   C8        1.0  0.09578  0.41213  0.98988  1.0000
  C   C9        1.0  0.65852  0.99212  0.02153  1.0000
  C   C10       1.0  0.84142  0.00788  0.52155  1.0000
  C   C11       1.0  0.34153  0.49211  0.47846  1.0000
  C   C12       1.0  0.15852  0.50788  0.97846  1.0000
  C   C13       1.0  0.82554  0.94029  0.96438  1.0000
  C   C14       1.0  0.67443  0.05970  0.46439  1.0000
  C   C15       1.0  0.17452  0.44030  0.53562  1.0000
  C   C16       1.0  0.32551  0.55971  0.03562  1.0000
  C   C17       1.0  0.87612  0.08258  0.88017  1.0000
  C   C18       1.0  0.62385  0.91742  0.38018  1.0000
  C   C19       1.0  0.12393  0.58258  0.61983  1.0000
  C   C20       1.0  0.37611  0.41742  0.11983  1.0000
  C   C21       1.0  0.93603  0.98430  0.89165  1.0000
  C   C22       1.0  0.56394  0.01570  0.39166  1.0000
  C   C23       1.0  0.06402  0.48431  0.60835  1.0000
  C   C24       1.0  0.43601  0.51570  0.10835  1.0000
  Se  Se1       1.0  0.17988  0.02579  0.75131  1.0000
  Se  Se2       1.0  0.32014  0.97420  0.25133  1.0000
  Se  Se3       1.0  0.82016  0.52580  0.74869  1.0000
  Se  Se4       1.0  0.67982  0.47422  0.24868  1.0000
  N   N1        1.0  0.09531  0.94201  0.83029  1.0000
  N   N2        1.0  0.40468  0.05799  0.33030  1.0000
  N   N3        1.0  0.90473  0.44201  0.66971  1.0000
  N   N4        1.0  0.59527  0.55800  0.16971  1.0000
  N   N5        1.0  0.98777  0.11749  0.80974  1.0000
  N   N6        1.0  0.51222  0.88250  0.30975  1.0000
  N   N7        1.0  0.01231  0.61749  0.69025  1.0000
  N   N8        1.0  0.48774  0.38251  0.19025  1.0000
  Cl  Cl1       1.0  0.50950  0.83811  0.67950  1.0000
  Cl  Cl2       1.0  0.99050  0.16189  0.17950  1.0000
  Cl  Cl3       1.0  0.49049  0.33811  0.82050  1.0000
  Cl  Cl4       1.0  0.00948  0.66190  0.32049  1.0000
  Cl  Cl5       1.0  0.72292  0.70289  0.87211  1.0000
  Cl  Cl6       1.0  0.77703  0.29711  0.37210  1.0000
  Cl  Cl7       1.0  0.27703  0.20289  0.62789  1.0000
  Cl  Cl8       1.0  0.22294  0.79711  0.12789  1.0000
