data_image0
_chemical_formula_structural       Cu2H14C2N18
_chemical_formula_sum              "Cu2 H14 C2 N18"
_cell_length_a       5.66402
_cell_length_b       6.74188
_cell_length_c       10.1167
_cell_angle_alpha    77.5353
_cell_angle_beta     73.7541
_cell_angle_gamma    65.1451

_space_group_name_H-M_alt    "P 1"
_space_group_IT_number       1

loop_
  _space_group_symop_operation_xyz
  'x, y, z'

loop_
  _atom_site_type_symbol
  _atom_site_label
  _atom_site_symmetry_multiplicity
  _atom_site_fract_x
  _atom_site_fract_y
  _atom_site_fract_z
  _atom_site_occupancy
  Cu  Cu1       1.0  0.00000  0.50002  0.99999  1.0000
  Cu  Cu2       1.0  0.50008  0.99994  0.50001  1.0000
  H   H1        1.0  0.55403  0.74629  0.91705  1.0000
  H   H2        1.0  0.21754  0.75379  0.58285  1.0000
  H   H3        1.0  0.44596  0.25373  0.08294  1.0000
  H   H4        1.0  0.78253  0.24616  0.41716  1.0000
  H   H5        1.0  0.67100  0.49765  0.87383  1.0000
  H   H6        1.0  0.04254  0.00244  0.62609  1.0000
  H   H7        1.0  0.32899  0.50236  0.12619  1.0000
  H   H8        1.0  0.95754  0.99753  0.37389  1.0000
  H   H9        1.0  0.80187  0.67056  0.77906  1.0000
  H   H10       1.0  0.25162  0.82948  0.72088  1.0000
  H   H11       1.0  0.19809  0.32945  0.22093  1.0000
  H   H12       1.0  0.74838  0.17050  0.27913  1.0000
  H   H13       1.0  0.03902  0.25023  0.75008  1.0000
  H   H14       1.0  0.96099  0.74983  0.24987  1.0000
  C   C1        1.0  0.22989  0.25021  0.75004  1.0000
  C   C2        1.0  0.77012  0.74981  0.24993  1.0000
  N   N1        1.0  0.27411  0.34451  0.83912  1.0000
  N   N2        1.0  0.45741  0.15580  0.66093  1.0000
  N   N3        1.0  0.72590  0.65549  0.16087  1.0000
  N   N4        1.0  0.54263  0.84418  0.33908  1.0000
  N   N5        1.0  0.53690  0.30623  0.80362  1.0000
  N   N6        1.0  0.64659  0.19392  0.69637  1.0000
  N   N7        1.0  0.46311  0.69372  0.19640  1.0000
  N   N8        1.0  0.35345  0.80601  0.30366  1.0000
  N   N9        1.0  0.72842  0.62121  0.88017  1.0000
  N   N10       1.0  0.22992  0.87886  0.61975  1.0000
  N   N11       1.0  0.27156  0.37881  0.11982  1.0000
  N   N12       1.0  0.77014  0.12111  0.38025  1.0000
  N   N13       1.0  0.00000  0.00001  0.99999  1.0000
  N   N14       1.0  0.99989  0.50005  0.50001  1.0000
  N   N15       1.0  0.12922  0.84701  0.93583  1.0000
  N   N16       1.0  0.91211  0.65306  0.56414  1.0000
  N   N17       1.0  0.87079  0.15299  0.06416  1.0000
  N   N18       1.0  0.08769  0.34702  0.43588  1.0000
