data_image0
_chemical_formula_structural       Tb4H24C32N4O34
_chemical_formula_sum              "Tb4 H24 C32 N4 O34"
_cell_length_a       7.87122
_cell_length_b       10.0672
_cell_length_c       15.3448
_cell_angle_alpha    87.7703
_cell_angle_beta     87.6559
_cell_angle_gamma    78.3383

_space_group_name_H-M_alt    "P 1"
_space_group_IT_number       1

loop_
  _space_group_symop_operation_xyz
  'x, y, z'

loop_
  _atom_site_type_symbol
  _atom_site_label
  _atom_site_symmetry_multiplicity
  _atom_site_fract_x
  _atom_site_fract_y
  _atom_site_fract_z
  _atom_site_occupancy
  Tb  Tb1       1.0  0.35321  0.33425  0.06309  1.0000
  Tb  Tb2       1.0  0.64680  0.66575  0.93691  1.0000
  Tb  Tb3       1.0  0.62522  0.86496  0.32548  1.0000
  Tb  Tb4       1.0  0.37478  0.13504  0.67453  1.0000
  H   H1        1.0  0.56192  0.41661  0.19960  1.0000
  H   H2        1.0  0.43809  0.58339  0.80040  1.0000
  H   H3        1.0  0.68147  0.41698  0.11408  1.0000
  H   H4        1.0  0.31854  0.58302  0.88592  1.0000
  H   H5        1.0  0.31717  0.14059  0.91624  1.0000
  H   H6        1.0  0.68283  0.85942  0.08376  1.0000
  H   H7        1.0  0.20728  0.27973  0.89626  1.0000
  H   H8        1.0  0.79272  0.72027  0.10374  1.0000
  H   H9        1.0  0.72339  0.69665  0.47543  1.0000
  H   H10       1.0  0.27662  0.30334  0.52456  1.0000
  H   H11       1.0  0.84033  0.80507  0.46598  1.0000
  H   H12       1.0  0.15966  0.19492  0.53402  1.0000
  H   H13       1.0  0.17341  0.53050  0.69392  1.0000
  H   H14       1.0  0.82658  0.46950  0.30608  1.0000
  H   H15       1.0  0.90862  0.66285  0.61838  1.0000
  H   H16       1.0  0.09137  0.33716  0.38163  1.0000
  H   H17       1.0  0.64481  0.55288  0.61238  1.0000
  H   H18       1.0  0.35518  0.44713  0.38763  1.0000
  H   H19       1.0  0.10688  0.87774  0.79980  1.0000
  H   H20       1.0  0.89312  0.12226  0.20020  1.0000
  H   H21       1.0  0.92901  0.87297  0.94038  1.0000
  H   H22       1.0  0.07100  0.12703  0.05962  1.0000
  H   H23       1.0  0.73134  0.08971  0.98774  1.0000
  H   H24       1.0  0.26866  0.91029  0.01226  1.0000
  C   C1        1.0  0.05081  0.49699  0.69226  1.0000
  C   C2        1.0  0.94919  0.50301  0.30775  1.0000
  C   C3        1.0  0.90567  0.56451  0.64966  1.0000
  C   C4        1.0  0.09433  0.43550  0.35034  1.0000
  C   C5        1.0  0.76071  0.50512  0.64703  1.0000
  C   C6        1.0  0.23929  0.49489  0.35297  1.0000
  C   C7        1.0  0.76053  0.38200  0.69168  1.0000
  C   C8        1.0  0.23946  0.61801  0.30832  1.0000
  C   C9        1.0  0.90517  0.32086  0.73949  1.0000
  C   C10       1.0  0.09482  0.67914  0.26050  1.0000
  C   C11       1.0  0.60677  0.31450  0.68920  1.0000
  C   C12       1.0  0.39322  0.68550  0.31079  1.0000
  C   C13       1.0  0.02059  0.96665  0.82583  1.0000
  C   C14       1.0  0.97941  0.03335  0.17417  1.0000
  C   C15       1.0  0.92172  0.96719  0.90211  1.0000
  C   C16       1.0  0.07829  0.03281  0.09789  1.0000
  C   C17       1.0  0.81410  0.08746  0.92894  1.0000
  C   C18       1.0  0.18590  0.91254  0.07107  1.0000
  C   C19       1.0  0.80997  0.20625  0.87865  1.0000
  C   C20       1.0  0.19004  0.79374  0.12135  1.0000
  C   C21       1.0  0.90990  0.20212  0.80045  1.0000
  C   C22       1.0  0.09010  0.79788  0.19955  1.0000
  C   C23       1.0  0.69692  0.33724  0.90771  1.0000
  C   C24       1.0  0.30309  0.66276  0.09229  1.0000
  C   C25       1.0  0.95496  0.46364  0.03749  1.0000
  C   C26       1.0  0.04505  0.53635  0.96251  1.0000
  C   C27       1.0  0.42663  0.95863  0.50401  1.0000
  C   C28       1.0  0.57337  0.04136  0.49599  1.0000
  C   C29       1.0  0.51184  0.05793  0.15609  1.0000
  C   C30       1.0  0.48817  0.94208  0.84392  1.0000
  C   C31       1.0  0.40937  0.13898  0.23157  1.0000
  C   C32       1.0  0.59063  0.86102  0.76843  1.0000
  N   N1        1.0  0.04982  0.37634  0.73506  1.0000
  N   N2        1.0  0.95018  0.62366  0.26494  1.0000
  N   N3        1.0  0.01277  0.08268  0.77594  1.0000
  N   N4        1.0  0.98723  0.91733  0.22406  1.0000
  O   O1        1.0  0.19270  0.31037  0.77306  1.0000
  O   O2        1.0  0.80729  0.68962  0.22694  1.0000
  O   O3        1.0  0.10231  0.07742  0.70152  1.0000
  O   O4        1.0  0.89768  0.92258  0.29848  1.0000
  O   O5        1.0  0.47140  0.37269  0.65061  1.0000
  O   O6        1.0  0.52860  0.62731  0.34938  1.0000
  O   O7        1.0  0.62191  0.19661  0.72606  1.0000
  O   O8        1.0  0.37808  0.80339  0.27393  1.0000
  O   O9        1.0  0.73000  0.44765  0.87556  1.0000
  O   O10       1.0  0.27000  0.55236  0.12444  1.0000
  O   O11       1.0  0.57751  0.33052  0.96468  1.0000
  O   O12       1.0  0.42249  0.66949  0.03532  1.0000
  O   O13       1.0  0.79152  0.50408  0.04691  1.0000
  O   O14       1.0  0.20848  0.49592  0.95308  1.0000
  O   O15       1.0  0.04710  0.37211  0.08281  1.0000
  O   O16       1.0  0.95290  0.62789  0.91718  1.0000
  O   O17       1.0  0.31016  0.99291  0.56293  1.0000
  O   O18       1.0  0.68985  0.00707  0.43708  1.0000
  O   O19       1.0  0.43604  0.86412  0.45099  1.0000
  O   O20       1.0  0.56396  0.13587  0.54901  1.0000
  O   O21       1.0  0.43205  0.08667  0.30732  1.0000
  O   O22       1.0  0.56795  0.91333  0.69268  1.0000
  O   O23       1.0  0.61253  0.94702  0.17628  1.0000
  O   O24       1.0  0.38746  0.05298  0.82372  1.0000
  O   O25       1.0  0.31395  0.25153  0.20906  1.0000
  O   O26       1.0  0.68605  0.74848  0.79095  1.0000
  O   O27       1.0  0.49131  0.10713  0.07935  1.0000
  O   O28       1.0  0.50869  0.89287  0.92065  1.0000
  O   O29       1.0  0.60170  0.36537  0.14756  1.0000
  O   O30       1.0  0.39831  0.63463  0.85244  1.0000
  O   O31       1.0  0.24962  0.22072  0.94703  1.0000
  O   O32       1.0  0.75038  0.77928  0.05296  1.0000
  O   O33       1.0  0.81219  0.72681  0.43783  1.0000
  O   O34       1.0  0.18782  0.27318  0.56217  1.0000
