data_image0
_chemical_formula_structural       Ag4H8C16N16
_chemical_formula_sum              "Ag4 H8 C16 N16"
_cell_length_a       6.88109
_cell_length_b       7.59139
_cell_length_c       10.4405
_cell_angle_alpha    81.4183
_cell_angle_beta     70.7828
_cell_angle_gamma    63.0519

_space_group_name_H-M_alt    "P 1"
_space_group_IT_number       1

loop_
  _space_group_symop_operation_xyz
  'x, y, z'

loop_
  _atom_site_type_symbol
  _atom_site_label
  _atom_site_symmetry_multiplicity
  _atom_site_fract_x
  _atom_site_fract_y
  _atom_site_fract_z
  _atom_site_occupancy
  Ag  Ag1       1.0  0.52461  0.75003  0.45057  1.0000
  Ag  Ag2       1.0  0.72515  0.75000  0.04951  1.0000
  Ag  Ag3       1.0  0.47539  0.24997  0.54942  1.0000
  Ag  Ag4       1.0  0.27485  0.25000  0.95049  1.0000
  H   H1        1.0  0.92116  0.93069  0.46845  1.0000
  H   H2        1.0  0.14823  0.93059  0.03155  1.0000
  H   H3        1.0  0.32063  0.56930  0.03150  1.0000
  H   H4        1.0  0.11010  0.56926  0.46859  1.0000
  H   H5        1.0  0.07885  0.06931  0.53155  1.0000
  H   H6        1.0  0.85178  0.06941  0.96845  1.0000
  H   H7        1.0  0.67937  0.43070  0.96850  1.0000
  H   H8        1.0  0.88990  0.43074  0.53141  1.0000
  C   C1        1.0  0.01174  0.85242  0.37225  1.0000
  C   C2        1.0  0.13609  0.85240  0.12778  1.0000
  C   C3        1.0  0.23647  0.64738  0.12779  1.0000
  C   C4        1.0  0.11632  0.64739  0.37230  1.0000
  C   C5        1.0  0.98827  0.14758  0.62775  1.0000
  C   C6        1.0  0.86391  0.14759  0.87222  1.0000
  C   C7        1.0  0.76352  0.35262  0.87221  1.0000
  C   C8        1.0  0.88369  0.35260  0.62770  1.0000
  C   C9        1.0  0.02079  0.95863  0.25001  1.0000
  C   C10       1.0  0.22943  0.54120  0.25005  1.0000
  C   C11       1.0  0.97922  0.04137  0.74999  1.0000
  C   C12       1.0  0.77057  0.45880  0.74995  1.0000
  C   C13       1.0  0.91293  0.17431  0.25000  1.0000
  C   C14       1.0  0.33734  0.32555  0.24998  1.0000
  C   C15       1.0  0.08708  0.82569  0.75001  1.0000
  C   C16       1.0  0.66266  0.67444  0.75002  1.0000
  N   N1        1.0  0.76975  0.28911  0.36029  1.0000
  N   N2        1.0  0.94121  0.28918  0.13971  1.0000
  N   N3        1.0  0.41928  0.21075  0.13967  1.0000
  N   N4        1.0  0.37013  0.21080  0.36030  1.0000
  N   N5        1.0  0.23025  0.71088  0.63971  1.0000
  N   N6        1.0  0.05879  0.71082  0.86029  1.0000
  N   N7        1.0  0.58072  0.78924  0.86033  1.0000
  N   N8        1.0  0.62987  0.78920  0.63970  1.0000
  N   N9        1.0  0.71133  0.47591  0.31608  1.0000
  N   N10       1.0  0.81289  0.47595  0.18396  1.0000
  N   N11       1.0  0.50334  0.02399  0.18395  1.0000
  N   N12       1.0  0.47276  0.02402  0.31609  1.0000
  N   N13       1.0  0.28867  0.52409  0.68392  1.0000
  N   N14       1.0  0.18711  0.52405  0.81604  1.0000
  N   N15       1.0  0.49666  0.97601  0.81605  1.0000
  N   N16       1.0  0.52724  0.97598  0.68391  1.0000
