data_image0
_chemical_formula_structural       Ba2H28C24N4O16
_chemical_formula_sum              "Ba2 H28 C24 N4 O16"
_cell_length_a       7.04946
_cell_length_b       7.49936
_cell_length_c       15.4293
_cell_angle_alpha    93.8074
_cell_angle_beta     102.329
_cell_angle_gamma    98.7621

_space_group_name_H-M_alt    "P 1"
_space_group_IT_number       1

loop_
  _space_group_symop_operation_xyz
  'x, y, z'

loop_
  _atom_site_type_symbol
  _atom_site_label
  _atom_site_symmetry_multiplicity
  _atom_site_fract_x
  _atom_site_fract_y
  _atom_site_fract_z
  _atom_site_occupancy
  Ba  Ba1       1.0  0.78354  0.52767  0.55949  1.0000
  Ba  Ba2       1.0  0.21647  0.47233  0.44051  1.0000
  H   H1        1.0  0.49532  0.13233  0.44411  1.0000
  H   H2        1.0  0.50468  0.86767  0.55589  1.0000
  H   H3        1.0  0.47801  0.14925  0.54461  1.0000
  H   H4        1.0  0.52199  0.85074  0.45540  1.0000
  H   H5        1.0  0.95622  0.84449  0.43527  1.0000
  H   H6        1.0  0.04377  0.15549  0.56473  1.0000
  H   H7        1.0  0.10618  0.86802  0.53000  1.0000
  H   H8        1.0  0.89381  0.13198  0.47000  1.0000
  H   H9        1.0  0.72117  0.20798  0.68945  1.0000
  H   H10       1.0  0.27883  0.79203  0.31056  1.0000
  H   H11       1.0  0.83349  0.35654  0.76553  1.0000
  H   H12       1.0  0.16650  0.64346  0.23448  1.0000
  H   H13       1.0  0.98526  0.91776  0.67487  1.0000
  H   H14       1.0  0.01475  0.08225  0.32513  1.0000
  H   H15       1.0  0.76379  0.91399  0.68068  1.0000
  H   H16       1.0  0.23622  0.08602  0.31932  1.0000
  H   H17       1.0  0.89343  0.33260  0.22355  1.0000
  H   H18       1.0  0.10657  0.66738  0.77645  1.0000
  H   H19       1.0  0.29921  0.40616  0.21892  1.0000
  H   H20       1.0  0.70080  0.59384  0.78108  1.0000
  H   H21       1.0  0.21550  0.31330  0.05556  1.0000
  H   H22       1.0  0.78450  0.68671  0.94444  1.0000
  H   H23       1.0  0.18532  0.30479  0.92437  1.0000
  H   H24       1.0  0.81468  0.69521  0.07563  1.0000
  H   H25       1.0  0.12204  0.20234  0.76332  1.0000
  H   H26       1.0  0.87796  0.79768  0.23667  1.0000
  H   H27       1.0  0.69209  0.03681  0.81441  1.0000
  H   H28       1.0  0.30789  0.96318  0.18558  1.0000
  C   C1        1.0  0.74282  0.33466  0.18716  1.0000
  C   C2        1.0  0.25719  0.66533  0.81283  1.0000
  C   C3        1.0  0.60450  0.38286  0.23381  1.0000
  C   C4        1.0  0.39550  0.61714  0.76619  1.0000
  C   C5        1.0  0.66009  0.43895  0.33241  1.0000
  C   C6        1.0  0.33991  0.56104  0.66759  1.0000
  C   C7        1.0  0.41209  0.37606  0.18450  1.0000
  C   C8        1.0  0.58791  0.62394  0.81550  1.0000
  C   C9        1.0  0.36679  0.32442  0.09341  1.0000
  C   C10       1.0  0.63322  0.67560  0.90659  1.0000
  C   C11       1.0  0.51684  0.28218  0.05233  1.0000
  C   C12       1.0  0.48317  0.71782  0.94767  1.0000
  C   C13       1.0  0.47428  0.22452  0.95506  1.0000
  C   C14       1.0  0.52571  0.77547  0.04493  1.0000
  C   C15       1.0  0.29483  0.24313  0.89863  1.0000
  C   C16       1.0  0.70517  0.75688  0.10137  1.0000
  C   C17       1.0  0.25871  0.18606  0.80846  1.0000
  C   C18       1.0  0.74129  0.81395  0.19154  1.0000
  C   C19       1.0  0.40290  0.11186  0.77548  1.0000
  C   C20       1.0  0.59709  0.88814  0.22451  1.0000
  C   C21       1.0  0.36920  0.04945  0.67909  1.0000
  C   C22       1.0  0.63080  0.95055  0.32091  1.0000
  C   C23       1.0  0.57777  0.09886  0.83675  1.0000
  C   C24       1.0  0.42223  0.90113  0.16325  1.0000
  N   N1        1.0  0.70296  0.28804  0.09932  1.0000
  N   N2        1.0  0.29704  0.71195  0.90068  1.0000
  N   N3        1.0  0.61392  0.15289  0.92363  1.0000
  N   N4        1.0  0.38607  0.84711  0.07637  1.0000
  O   O1        1.0  0.53593  0.50456  0.36850  1.0000
  O   O2        1.0  0.46408  0.49543  0.63150  1.0000
  O   O3        1.0  0.82867  0.41799  0.37578  1.0000
  O   O4        1.0  0.17134  0.58201  0.62422  1.0000
  O   O5        1.0  0.19362  0.01599  0.63223  1.0000
  O   O6        1.0  0.80637  0.98400  0.36776  1.0000
  O   O7        1.0  0.52050  0.03349  0.64627  1.0000
  O   O8        1.0  0.47948  0.96652  0.35373  1.0000
  O   O9        1.0  0.48255  0.21927  0.49292  1.0000
  O   O10       1.0  0.51745  0.78073  0.50708  1.0000
  O   O11       1.0  0.03102  0.77810  0.47980  1.0000
  O   O12       1.0  0.96898  0.22189  0.52020  1.0000
  O   O13       1.0  0.83907  0.30545  0.70671  1.0000
  O   O14       1.0  0.16093  0.69456  0.29330  1.0000
  O   O15       1.0  0.86692  0.83913  0.68451  1.0000
  O   O16       1.0  0.13308  0.16087  0.31549  1.0000
