data_image0
_chemical_formula_structural       Cu2H18C30N6O12
_chemical_formula_sum              "Cu2 H18 C30 N6 O12"
_cell_length_a       9.0378
_cell_length_b       10.4008
_cell_length_c       10.4848
_cell_angle_alpha    101.729
_cell_angle_beta     93.3394
_cell_angle_gamma    125.765

_space_group_name_H-M_alt    "P 1"
_space_group_IT_number       1

loop_
  _space_group_symop_operation_xyz
  'x, y, z'

loop_
  _atom_site_type_symbol
  _atom_site_label
  _atom_site_symmetry_multiplicity
  _atom_site_fract_x
  _atom_site_fract_y
  _atom_site_fract_z
  _atom_site_occupancy
  Cu  Cu1       1.0  0.56071  0.84405  0.65835  1.0000
  Cu  Cu2       1.0  0.43929  0.15596  0.34165  1.0000
  H   H1        1.0  0.18883  0.60608  0.45442  1.0000
  H   H2        1.0  0.81118  0.39393  0.54558  1.0000
  H   H3        1.0  0.94023  0.29611  0.38258  1.0000
  H   H4        1.0  0.05977  0.70389  0.61741  1.0000
  H   H5        1.0  0.99506  0.12475  0.48199  1.0000
  H   H6        1.0  0.00492  0.87526  0.51802  1.0000
  H   H7        1.0  0.30274  0.26337  0.63664  1.0000
  H   H8        1.0  0.69724  0.73663  0.36338  1.0000
  H   H9        1.0  0.56240  0.40971  0.78550  1.0000
  H   H10       1.0  0.43761  0.59029  0.21449  1.0000
  H   H11       1.0  0.88470  0.59638  0.92566  1.0000
  H   H12       1.0  0.11530  0.40361  0.07434  1.0000
  H   H13       1.0  0.08890  0.89918  0.93631  1.0000
  H   H14       1.0  0.91110  0.10082  0.06370  1.0000
  H   H15       1.0  0.95151  0.00188  0.81234  1.0000
  H   H16       1.0  0.04849  0.99811  0.18767  1.0000
  H   H17       1.0  0.97495  0.54475  0.16900  1.0000
  H   H18       1.0  0.02505  0.45525  0.83099  1.0000
  C   C1        1.0  0.76374  0.17239  0.84427  1.0000
  C   C2        1.0  0.23626  0.82761  0.15573  1.0000
  C   C3        1.0  0.62446  0.08302  0.92734  1.0000
  C   C4        1.0  0.37554  0.91699  0.07265  1.0000
  C   C5        1.0  0.60533  0.16718  0.04070  1.0000
  C   C6        1.0  0.39466  0.83281  0.95928  1.0000
  C   C7        1.0  0.71531  0.35299  0.08806  1.0000
  C   C8        1.0  0.28468  0.64701  0.91193  1.0000
  C   C9        1.0  0.20623  0.52511  0.49323  1.0000
  C   C10       1.0  0.79378  0.47490  0.50677  1.0000
  C   C11       1.0  0.06946  0.35379  0.45436  1.0000
  C   C12       1.0  0.93055  0.64622  0.54565  1.0000
  C   C13       1.0  0.10178  0.25878  0.50945  1.0000
  C   C14       1.0  0.89823  0.74122  0.49056  1.0000
  C   C15       1.0  0.27121  0.33647  0.59814  1.0000
  C   C16       1.0  0.72879  0.66353  0.40186  1.0000
  C   C17       1.0  0.40209  0.50881  0.63297  1.0000
  C   C18       1.0  0.59790  0.49119  0.36703  1.0000
  C   C19       1.0  0.58774  0.60632  0.72254  1.0000
  C   C20       1.0  0.41226  0.39368  0.27746  1.0000
  C   C21       1.0  0.65226  0.54066  0.79163  1.0000
  C   C22       1.0  0.34774  0.45933  0.20837  1.0000
  C   C23       1.0  0.83311  0.64568  0.87079  1.0000
  C   C24       1.0  0.16690  0.35431  0.12921  1.0000
  C   C25       1.0  0.94557  0.81324  0.87778  1.0000
  C   C26       1.0  0.05442  0.18676  0.12222  1.0000
  C   C27       1.0  0.87190  0.87178  0.80878  1.0000
  C   C28       1.0  0.12810  0.12822  0.19123  1.0000
  C   C29       1.0  0.56668  0.00341  0.45401  1.0000
  C   C30       1.0  0.43332  0.99659  0.54599  1.0000
  N   N1        1.0  0.51943  0.91773  0.88932  1.0000
  N   N2        1.0  0.48056  0.08227  0.11067  1.0000
  N   N3        1.0  0.36629  0.60025  0.58180  1.0000
  N   N4        1.0  0.63371  0.39975  0.41820  1.0000
  N   N5        1.0  0.69711  0.77067  0.73398  1.0000
  N   N6        1.0  0.30290  0.22934  0.26603  1.0000
  O   O1        1.0  0.77277  0.08787  0.74308  1.0000
  O   O2        1.0  0.22723  0.91213  0.25692  1.0000
  O   O3        1.0  0.86570  0.32850  0.88463  1.0000
  O   O4        1.0  0.13431  0.67150  0.11537  1.0000
  O   O5        1.0  0.87406  0.42620  0.17533  1.0000
  O   O6        1.0  0.12594  0.57380  0.82466  1.0000
  O   O7        1.0  0.65240  0.41957  0.05075  1.0000
  O   O8        1.0  0.34760  0.58043  0.94925  1.0000
  O   O9        1.0  0.62482  0.92052  0.45992  1.0000
  O   O10       1.0  0.37518  0.07947  0.54007  1.0000
  O   O11       1.0  0.60898  0.09663  0.37759  1.0000
  O   O12       1.0  0.39102  0.90338  0.62242  1.0000
