data_image0
_chemical_formula_structural       Cu2H52C24N4Cl4O10
_chemical_formula_sum              "Cu2 H52 C24 N4 Cl4 O10"
_cell_length_a       5.97813
_cell_length_b       8.78679
_cell_length_c       17.8208
_cell_angle_alpha    83.8984
_cell_angle_beta     80.1652
_cell_angle_gamma    69.9969

_space_group_name_H-M_alt    "P 1"
_space_group_IT_number       1

loop_
  _space_group_symop_operation_xyz
  'x, y, z'

loop_
  _atom_site_type_symbol
  _atom_site_label
  _atom_site_symmetry_multiplicity
  _atom_site_fract_x
  _atom_site_fract_y
  _atom_site_fract_z
  _atom_site_occupancy
  Cu  Cu1       1.0  0.43376  0.25017  0.75018  1.0000
  Cu  Cu2       1.0  0.56626  0.74982  0.24981  1.0000
  H   H1        1.0  0.58914  0.68851  0.56267  1.0000
  H   H2        1.0  0.84100  0.81121  0.93694  1.0000
  H   H3        1.0  0.41089  0.31148  0.43734  1.0000
  H   H4        1.0  0.15895  0.18879  0.06307  1.0000
  H   H5        1.0  0.26027  0.49556  0.54546  1.0000
  H   H6        1.0  0.30091  0.00505  0.95486  1.0000
  H   H7        1.0  0.73977  0.50445  0.45453  1.0000
  H   H8        1.0  0.69904  0.99495  0.04514  1.0000
  H   H9        1.0  0.30118  0.65426  0.47880  1.0000
  H   H10       1.0  0.43374  0.84612  0.02143  1.0000
  H   H11       1.0  0.69887  0.34574  0.52120  1.0000
  H   H12       1.0  0.56621  0.15389  0.97857  1.0000
  H   H13       1.0  0.42671  0.85318  0.68475  1.0000
  H   H14       1.0  0.96614  0.64722  0.81505  1.0000
  H   H15       1.0  0.57332  0.14680  0.31526  1.0000
  H   H16       1.0  0.03383  0.35278  0.18495  1.0000
  H   H17       1.0  0.25745  0.72536  0.73173  1.0000
  H   H18       1.0  0.71460  0.77357  0.76836  1.0000
  H   H19       1.0  0.74255  0.27464  0.26827  1.0000
  H   H20       1.0  0.28538  0.22645  0.23165  1.0000
  H   H21       1.0  0.10921  0.93689  0.70743  1.0000
  H   H22       1.0  0.75703  0.56166  0.79326  1.0000
  H   H23       1.0  0.89082  0.06312  0.29257  1.0000
  H   H24       1.0  0.24292  0.43836  0.20673  1.0000
  H   H25       1.0  0.96314  0.73873  0.56413  1.0000
  H   H26       1.0  0.26603  0.76111  0.93662  1.0000
  H   H27       1.0  0.03689  0.26128  0.43587  1.0000
  H   H28       1.0  0.73394  0.23890  0.06338  1.0000
  H   H29       1.0  0.01617  0.63364  0.65444  1.0000
  H   H30       1.0  0.30428  0.86596  0.84619  1.0000
  H   H31       1.0  0.98384  0.36637  0.34555  1.0000
  H   H32       1.0  0.69568  0.13405  0.15381  1.0000
  H   H33       1.0  0.85541  0.85181  0.64770  1.0000
  H   H34       1.0  0.35604  0.64784  0.85310  1.0000
  H   H35       1.0  0.14461  0.14819  0.35230  1.0000
  H   H36       1.0  0.64393  0.35217  0.14690  1.0000
  H   H37       1.0  0.37362  0.96712  0.56665  1.0000
  H   H38       1.0  0.90912  0.53276  0.93338  1.0000
  H   H39       1.0  0.62641  0.03287  0.43335  1.0000
  H   H40       1.0  0.09084  0.46725  0.06663  1.0000
  H   H41       1.0  0.05276  0.02513  0.57925  1.0000
  H   H42       1.0  0.65933  0.47454  0.92113  1.0000
  H   H43       1.0  0.94728  0.97487  0.42075  1.0000
  H   H44       1.0  0.34062  0.52546  0.07887  1.0000
  H   H45       1.0  0.23188  0.89680  0.50244  1.0000
  H   H46       1.0  0.63178  0.60300  0.99786  1.0000
  H   H47       1.0  0.76816  0.10320  0.49756  1.0000
  H   H48       1.0  0.36817  0.39701  0.00214  1.0000
  H   H49       1.0  0.96626  0.18782  0.78597  1.0000
  H   H50       1.0  0.93876  0.31493  0.71462  1.0000
  H   H51       1.0  0.03377  0.81215  0.21402  1.0000
  H   H52       1.0  0.06128  0.68504  0.28537  1.0000
  C   C1        1.0  0.53477  0.50720  0.64835  1.0000
  C   C2        1.0  0.69079  0.99191  0.85115  1.0000
  C   C3        1.0  0.46522  0.49279  0.35166  1.0000
  C   C4        1.0  0.30922  0.00810  0.14886  1.0000
  C   C5        1.0  0.44525  0.63741  0.58447  1.0000
  C   C6        1.0  0.66744  0.86236  0.91544  1.0000
  C   C7        1.0  0.55478  0.36259  0.41553  1.0000
  C   C8        1.0  0.33252  0.13764  0.08456  1.0000
  C   C9        1.0  0.38629  0.55988  0.52056  1.0000
  C   C10       1.0  0.46656  0.94032  0.97956  1.0000
  C   C11       1.0  0.61376  0.44012  0.47944  1.0000
  C   C12       1.0  0.53340  0.05969  0.02045  1.0000
  C   C13       1.0  0.25820  0.82666  0.69071  1.0000
  C   C14       1.0  0.77698  0.67271  0.80947  1.0000
  C   C15       1.0  0.74181  0.17333  0.30929  1.0000
  C   C16       1.0  0.22299  0.32730  0.19053  1.0000
  C   C17       1.0  0.99820  0.74819  0.62141  1.0000
  C   C18       1.0  0.36832  0.75149  0.87925  1.0000
  C   C19       1.0  0.00183  0.25182  0.37859  1.0000
  C   C20       1.0  0.63164  0.24852  0.12075  1.0000
  C   C21       1.0  0.22136  0.92859  0.56099  1.0000
  C   C22       1.0  0.71231  0.57116  0.93927  1.0000
  C   C23       1.0  0.77868  0.07141  0.43900  1.0000
  C   C24       1.0  0.28765  0.42884  0.06073  1.0000
  N   N1        1.0  0.22973  0.78317  0.61447  1.0000
  N   N2        1.0  0.62819  0.71651  0.88582  1.0000
  N   N3        1.0  0.77030  0.21683  0.38552  1.0000
  N   N4        1.0  0.37178  0.28350  0.11419  1.0000
  Cl  Cl1       1.0  0.35376  0.37784  0.86286  1.0000
  Cl  Cl2       1.0  0.59013  0.12209  0.63727  1.0000
  Cl  Cl3       1.0  0.64617  0.62218  0.13713  1.0000
  Cl  Cl4       1.0  0.40995  0.87790  0.36273  1.0000
  O   O1        1.0  0.37019  0.45965  0.68916  1.0000
  O   O2        1.0  0.51758  0.04068  0.81123  1.0000
  O   O3        1.0  0.62981  0.54034  0.31083  1.0000
  O   O4        1.0  0.48243  0.95933  0.18876  1.0000
  O   O5        1.0  0.75570  0.45836  0.65108  1.0000
  O   O6        1.0  0.86769  0.03891  0.84705  1.0000
  O   O7        1.0  0.24431  0.54165  0.34894  1.0000
  O   O8        1.0  0.13227  0.96111  0.15298  1.0000
  O   O9        1.0  0.04705  0.25524  0.75182  1.0000
  O   O10       1.0  0.95304  0.74465  0.24813  1.0000
