data_image0
_chemical_formula_structural       Ag2H36C48N6O8
_chemical_formula_sum              "Ag2 H36 C48 N6 O8"
_cell_length_a       7.81521
_cell_length_b       9.60594
_cell_length_c       13.902
_cell_angle_alpha    110.205
_cell_angle_beta     92.1198
_cell_angle_gamma    89.9869

_space_group_name_H-M_alt    "P 1"
_space_group_IT_number       1

loop_
  _space_group_symop_operation_xyz
  'x, y, z'

loop_
  _atom_site_type_symbol
  _atom_site_label
  _atom_site_symmetry_multiplicity
  _atom_site_fract_x
  _atom_site_fract_y
  _atom_site_fract_z
  _atom_site_occupancy
  Ag  Ag1       1.0  0.24900  0.80072  0.59759  1.0000
  Ag  Ag2       1.0  0.74898  0.79706  0.59756  1.0000
  H   H1        1.0  0.87668  0.57465  0.26277  1.0000
  H   H2        1.0  0.37640  0.68835  0.26267  1.0000
  H   H3        1.0  0.02362  0.58620  0.42689  1.0000
  H   H4        1.0  0.52331  0.84100  0.42677  1.0000
  H   H5        1.0  0.16274  0.02782  0.49460  1.0000
  H   H6        1.0  0.66306  0.46722  0.49457  1.0000
  H   H7        1.0  0.01131  0.03778  0.33723  1.0000
  H   H8        1.0  0.51171  0.29980  0.33722  1.0000
  H   H9        1.0  0.67792  0.97157  0.35720  1.0000
  H   H10       1.0  0.17798  0.38621  0.35721  1.0000
  H   H11       1.0  0.39186  0.07581  0.36029  1.0000
  H   H12       1.0  0.89193  0.28513  0.36035  1.0000
  H   H13       1.0  0.22393  0.03944  0.19614  1.0000
  H   H14       1.0  0.72411  0.15712  0.19622  1.0000
  H   H15       1.0  0.35155  0.90975  0.03026  1.0000
  H   H16       1.0  0.85192  0.12051  0.03033  1.0000
  H   H17       1.0  0.83517  0.62571  0.83087  1.0000
  H   H18       1.0  0.33544  0.20522  0.83086  1.0000
  H   H19       1.0  0.12044  0.52330  0.82784  1.0000
  H   H20       1.0  0.62090  0.30400  0.82778  1.0000
  H   H21       1.0  0.28635  0.55513  0.99294  1.0000
  H   H22       1.0  0.78733  0.43646  0.99286  1.0000
  H   H23       1.0  0.15446  0.67697  0.15837  1.0000
  H   H24       1.0  0.65527  0.48024  0.15832  1.0000
  H   H25       1.0  0.50020  0.54610  0.85048  1.0000
  H   H26       1.0  0.00063  0.30422  0.85025  1.0000
  H   H27       1.0  0.34354  0.55593  0.69424  1.0000
  H   H28       1.0  0.84359  0.13827  0.69423  1.0000
  H   H29       1.0  0.46637  0.00072  0.76541  1.0000
  H   H30       1.0  0.96621  0.76470  0.76555  1.0000
  H   H31       1.0  0.62189  0.01179  0.92763  1.0000
  H   H32       1.0  0.12201  0.91569  0.92765  1.0000
  H   H33       1.0  0.44537  0.09187  0.62082  1.0000
  H   H34       1.0  0.94530  0.52881  0.62092  1.0000
  H   H35       1.0  0.26959  0.17209  0.64876  1.0000
  H   H36       1.0  0.76952  0.47648  0.64874  1.0000
  C   C1        1.0  0.93138  0.80608  0.28485  1.0000
  C   C2        1.0  0.43157  0.47905  0.28479  1.0000
  C   C3        1.0  0.93678  0.67834  0.31202  1.0000
  C   C4        1.0  0.43658  0.63394  0.31193  1.0000
  C   C5        1.0  0.01928  0.68311  0.40331  1.0000
  C   C6        1.0  0.51901  0.72053  0.40323  1.0000
  C   C7        1.0  0.09541  0.93037  0.44199  1.0000
  C   C8        1.0  0.59555  0.51204  0.44198  1.0000
  C   C9        1.0  0.01189  0.93436  0.35293  1.0000
  C   C10       1.0  0.51217  0.41892  0.35290  1.0000
  C   C11       1.0  0.84248  0.80304  0.18765  1.0000
  C   C12       1.0  0.34265  0.38478  0.18761  1.0000
  C   C13       1.0  0.68198  0.87148  0.19055  1.0000
  C   C14       1.0  0.18209  0.31946  0.19057  1.0000
  C   C15       1.0  0.60655  0.95357  0.28509  1.0000
  C   C16       1.0  0.10656  0.33213  0.28513  1.0000
  C   C17       1.0  0.44645  0.01343  0.28707  1.0000
  C   C18       1.0  0.94652  0.27421  0.28710  1.0000
  C   C19       1.0  0.35255  0.99508  0.19397  1.0000
  C   C20       1.0  0.85270  0.19930  0.19400  1.0000
  C   C21       1.0  0.42357  0.92250  0.10139  1.0000
  C   C22       1.0  0.92385  0.17905  0.10142  1.0000
  C   C23       1.0  0.59004  0.85947  0.09570  1.0000
  C   C24       1.0  0.09028  0.23639  0.09572  1.0000
  C   C25       1.0  0.66393  0.78354  0.00095  1.0000
  C   C26       1.0  0.16420  0.21733  0.00092  1.0000
  C   C27       1.0  0.82567  0.71742  0.99803  1.0000
  C   C28       1.0  0.32600  0.28040  0.99798  1.0000
  C   C29       1.0  0.90348  0.63955  0.90342  1.0000
  C   C30       1.0  0.40385  0.26372  0.90339  1.0000
  C   C31       1.0  0.06464  0.58177  0.90157  1.0000
  C   C32       1.0  0.56517  0.31933  0.90154  1.0000
  C   C33       1.0  0.15696  0.59760  0.99477  1.0000
  C   C34       1.0  0.65777  0.39621  0.99472  1.0000
  C   C35       1.0  0.08370  0.66616  0.08720  1.0000
  C   C36       1.0  0.58439  0.42020  0.08715  1.0000
  C   C37       1.0  0.91675  0.72813  0.09288  1.0000
  C   C38       1.0  0.41719  0.36435  0.09281  1.0000
  C   C39       1.0  0.57364  0.77912  0.90393  1.0000
  C   C40       1.0  0.07395  0.12471  0.90389  1.0000
  C   C41       1.0  0.49575  0.64990  0.83525  1.0000
  C   C42       1.0  0.99616  0.18524  0.83513  1.0000
  C   C43       1.0  0.40893  0.65400  0.74711  1.0000
  C   C44       1.0  0.90907  0.09309  0.74711  1.0000
  C   C45       1.0  0.47738  0.90303  0.78786  1.0000
  C   C46       1.0  0.97729  0.88481  0.78794  1.0000
  C   C47       1.0  0.56348  0.90756  0.87797  1.0000
  C   C48       1.0  0.06362  0.97031  0.87798  1.0000
  N   N1        1.0  0.09970  0.80670  0.46712  1.0000
  N   N2        1.0  0.59965  0.66081  0.46704  1.0000
  N   N3        1.0  0.39820  0.77881  0.72375  1.0000
  N   N4        1.0  0.89819  0.94494  0.72380  1.0000
  N   N5        1.0  0.18288  0.35176  0.55900  1.0000
  N   N6        1.0  0.68283  0.20697  0.55884  1.0000
  O   O1        1.0  0.15357  0.32836  0.64191  1.0000
  O   O2        1.0  0.65373  0.31323  0.64181  1.0000
  O   O3        1.0  0.26439  0.26036  0.48933  1.0000
  O   O4        1.0  0.76399  0.22874  0.48906  1.0000
  O   O5        1.0  0.12903  0.47187  0.54842  1.0000
  O   O6        1.0  0.62915  0.07626  0.54831  1.0000
  O   O7        1.0  0.33715  0.08789  0.65508  1.0000
  O   O8        1.0  0.83701  0.56703  0.65513  1.0000
