data_image0
_chemical_formula_structural       Cu2H28C30N4O10
_chemical_formula_sum              "Cu2 H28 C30 N4 O10"
_cell_length_a       8.83091
_cell_length_b       10.7213
_cell_length_c       11.5525
_cell_angle_alpha    100.244
_cell_angle_beta     104.872
_cell_angle_gamma    101.664

_space_group_name_H-M_alt    "P 1"
_space_group_IT_number       1

loop_
  _space_group_symop_operation_xyz
  'x, y, z'

loop_
  _atom_site_type_symbol
  _atom_site_label
  _atom_site_symmetry_multiplicity
  _atom_site_fract_x
  _atom_site_fract_y
  _atom_site_fract_z
  _atom_site_occupancy
  Cu  Cu1       1.0  0.00000  0.00000  0.00000  1.0000
  Cu  Cu2       1.0  0.50000  1.00000  0.50000  1.0000
  H   H1        1.0  0.01878  0.83672  0.32720  1.0000
  H   H2        1.0  0.98123  0.16328  0.67280  1.0000
  H   H3        1.0  0.94519  0.42610  0.71765  1.0000
  H   H4        1.0  0.05480  0.57389  0.28235  1.0000
  H   H5        1.0  0.06938  0.65209  0.69741  1.0000
  H   H6        1.0  0.93062  0.34790  0.30258  1.0000
  H   H7        1.0  0.70655  0.82768  0.56138  1.0000
  H   H8        1.0  0.29345  0.17231  0.43862  1.0000
  H   H9        1.0  0.65184  0.05244  0.30319  1.0000
  H   H10       1.0  0.34816  0.94756  0.69682  1.0000
  H   H11       1.0  0.67898  0.59282  0.36394  1.0000
  H   H12       1.0  0.32102  0.40718  0.63606  1.0000
  H   H13       1.0  0.56006  0.36931  0.38427  1.0000
  H   H14       1.0  0.43994  0.63069  0.61573  1.0000
  H   H15       1.0  0.14388  0.20080  0.24659  1.0000
  H   H16       1.0  0.85613  0.79921  0.75342  1.0000
  H   H17       1.0  0.13573  0.28814  0.12943  1.0000
  H   H18       1.0  0.86428  0.71186  0.87057  1.0000
  H   H19       1.0  0.32734  0.29989  0.23780  1.0000
  H   H20       1.0  0.67266  0.70011  0.76220  1.0000
  H   H21       1.0  0.44714  0.11344  0.22003  1.0000
  H   H22       1.0  0.55286  0.88656  0.77997  1.0000
  H   H23       1.0  0.34373  0.96947  0.09604  1.0000
  H   H24       1.0  0.65627  0.03054  0.90396  1.0000
  H   H25       1.0  0.27104  0.00049  0.22607  1.0000
  H   H26       1.0  0.72896  0.99951  0.77393  1.0000
  H   H27       1.0  0.26816  0.14905  0.03419  1.0000
  H   H28       1.0  0.73184  0.85095  0.96582  1.0000
  C   C1        1.0  0.91975  0.86584  0.35613  1.0000
  C   C2        1.0  0.08025  0.13416  0.64387  1.0000
  C   C3        1.0  0.88840  0.46430  0.64091  1.0000
  C   C4        1.0  0.11159  0.53570  0.35909  1.0000
  C   C5        1.0  0.95727  0.58875  0.63033  1.0000
  C   C6        1.0  0.04272  0.41124  0.36966  1.0000
  C   C7        1.0  0.88183  0.63335  0.52964  1.0000
  C   C8        1.0  0.11817  0.36665  0.47036  1.0000
  C   C9        1.0  0.83555  0.94716  0.29929  1.0000
  C   C10       1.0  0.16446  0.05285  0.70071  1.0000
  C   C11       1.0  0.74609  0.38373  0.55166  1.0000
  C   C12       1.0  0.25390  0.61627  0.44834  1.0000
  C   C13       1.0  0.87482  0.82460  0.45308  1.0000
  C   C14       1.0  0.12518  0.17540  0.54693  1.0000
  C   C15       1.0  0.74835  0.86224  0.48906  1.0000
  C   C16       1.0  0.25165  0.13776  0.51094  1.0000
  C   C17       1.0  0.68077  0.24666  0.55987  1.0000
  C   C18       1.0  0.31923  0.75333  0.44012  1.0000
  C   C19       1.0  0.71409  0.98513  0.34269  1.0000
  C   C20       1.0  0.28591  0.01487  0.65731  1.0000
  C   C21       1.0  0.73695  0.55669  0.44170  1.0000
  C   C22       1.0  0.26305  0.44331  0.55830  1.0000
  C   C23       1.0  0.67081  0.43191  0.45321  1.0000
  C   C24       1.0  0.32919  0.56809  0.54679  1.0000
  C   C25       1.0  0.87053  0.99469  0.19128  1.0000
  C   C26       1.0  0.12947  0.00532  0.80872  1.0000
  C   C27       1.0  0.20746  0.23392  0.18332  1.0000
  C   C28       1.0  0.79255  0.76608  0.81668  1.0000
  C   C29       1.0  0.32841  0.04642  0.16504  1.0000
  C   C30       1.0  0.67159  0.95358  0.83497  1.0000
  N   N1        1.0  0.67095  0.94219  0.43488  1.0000
  N   N2        1.0  0.32905  0.05781  0.56512  1.0000
  N   N3        1.0  0.22231  0.11884  0.10026  1.0000
  N   N4        1.0  0.77769  0.88116  0.89974  1.0000
  O   O1        1.0  0.96293  0.75357  0.51877  1.0000
  O   O2        1.0  0.03707  0.24643  0.48123  1.0000
  O   O3        1.0  0.73956  0.20599  0.65216  1.0000
  O   O4        1.0  0.26044  0.79401  0.34784  1.0000
  O   O5        1.0  0.56147  0.17360  0.46402  1.0000
  O   O6        1.0  0.43853  0.82639  0.53598  1.0000
  O   O7        1.0  0.97092  0.94206  0.14758  1.0000
  O   O8        1.0  0.02908  0.05795  0.85243  1.0000
  O   O9        1.0  0.80292  0.07604  0.14967  1.0000
  O   O10       1.0  0.19708  0.92397  0.85034  1.0000
