data_image0
_chemical_formula_structural       Cd2H28C28N6O12
_chemical_formula_sum              "Cd2 H28 C28 N6 O12"
_cell_length_a       8.44021
_cell_length_b       9.58978
_cell_length_c       10.3321
_cell_angle_alpha    78.8951
_cell_angle_beta     74.734
_cell_angle_gamma    74.073

_space_group_name_H-M_alt    "P 1"
_space_group_IT_number       1

loop_
  _space_group_symop_operation_xyz
  'x, y, z'

loop_
  _atom_site_type_symbol
  _atom_site_label
  _atom_site_symmetry_multiplicity
  _atom_site_fract_x
  _atom_site_fract_y
  _atom_site_fract_z
  _atom_site_occupancy
  Cd  Cd1       1.0  0.79268  0.96941  0.12218  1.0000
  Cd  Cd2       1.0  0.20731  0.03060  0.87782  1.0000
  H   H1        1.0  0.50339  0.06498  0.29535  1.0000
  H   H2        1.0  0.49663  0.93502  0.70464  1.0000
  H   H3        1.0  0.42983  0.05016  0.17182  1.0000
  H   H4        1.0  0.57017  0.94985  0.82818  1.0000
  H   H5        1.0  0.73706  0.99222  0.63926  1.0000
  H   H6        1.0  0.26293  0.00780  0.36075  1.0000
  H   H7        1.0  0.94073  0.31741  0.73261  1.0000
  H   H8        1.0  0.05931  0.68258  0.26737  1.0000
  H   H9        1.0  0.93146  0.30037  0.32055  1.0000
  H   H10       1.0  0.06856  0.69962  0.67944  1.0000
  H   H11       1.0  0.64562  0.33582  0.16196  1.0000
  H   H12       1.0  0.35437  0.66419  0.83806  1.0000
  H   H13       1.0  0.82533  0.35780  0.03501  1.0000
  H   H14       1.0  0.17467  0.64219  0.96500  1.0000
  H   H15       1.0  0.76017  0.71391  0.86871  1.0000
  H   H16       1.0  0.23982  0.28608  0.13127  1.0000
  H   H17       1.0  0.92949  0.56497  0.89819  1.0000
  H   H18       1.0  0.07051  0.43502  0.10179  1.0000
  H   H19       1.0  0.93533  0.74664  0.91113  1.0000
  H   H20       1.0  0.06466  0.25335  0.08884  1.0000
  H   H21       1.0  0.56759  0.48180  0.34534  1.0000
  H   H22       1.0  0.43243  0.51821  0.65466  1.0000
  H   H23       1.0  0.63258  0.74290  0.37877  1.0000
  H   H24       1.0  0.36743  0.25712  0.62120  1.0000
  H   H25       1.0  0.65095  0.51900  0.88198  1.0000
  H   H26       1.0  0.34904  0.48097  0.11803  1.0000
  H   H27       1.0  0.58604  0.35437  0.94254  1.0000
  H   H28       1.0  0.41395  0.64560  0.05749  1.0000
  C   C1        1.0  0.82386  0.14206  0.47095  1.0000
  C   C2        1.0  0.17613  0.85795  0.52905  1.0000
  C   C3        1.0  0.78933  0.08833  0.60821  1.0000
  C   C4        1.0  0.21066  0.91168  0.39180  1.0000
  C   C5        1.0  0.93680  0.32440  0.52238  1.0000
  C   C6        1.0  0.06321  0.67559  0.47763  1.0000
  C   C7        1.0  0.83159  0.15091  0.70230  1.0000
  C   C8        1.0  0.16842  0.84910  0.29770  1.0000
  C   C9        1.0  0.78824  0.06878  0.36911  1.0000
  C   C10       1.0  0.21173  0.93122  0.63091  1.0000
  C   C11       1.0  0.90595  0.27041  0.65961  1.0000
  C   C12       1.0  0.09407  0.72960  0.34039  1.0000
  C   C13       1.0  0.80339  0.08746  0.84779  1.0000
  C   C14       1.0  0.19660  0.91256  0.15222  1.0000
  C   C15       1.0  0.89944  0.26045  0.42753  1.0000
  C   C16       1.0  0.10056  0.73955  0.57247  1.0000
  C   C17       1.0  0.77142  0.65152  0.07744  1.0000
  C   C18       1.0  0.22858  0.34848  0.92254  1.0000
  C   C19       1.0  0.69582  0.41354  0.07943  1.0000
  C   C20       1.0  0.30418  0.58644  0.92058  1.0000
  C   C21       1.0  0.85378  0.66994  0.93166  1.0000
  C   C22       1.0  0.14621  0.33005  0.06832  1.0000
  C   C23       1.0  0.63219  0.55882  0.27527  1.0000
  C   C24       1.0  0.36782  0.44118  0.72472  1.0000
  C   C25       1.0  0.66407  0.68685  0.29035  1.0000
  C   C26       1.0  0.33595  0.31317  0.70964  1.0000
  C   C27       1.0  0.58938  0.45694  0.97333  1.0000
  C   C28       1.0  0.41061  0.54304  0.02669  1.0000
  N   N1        1.0  0.02414  0.44036  0.46813  1.0000
  N   N2        1.0  0.97589  0.55963  0.53187  1.0000
  N   N3        1.0  0.75074  0.74326  0.16679  1.0000
  N   N4        1.0  0.24927  0.25675  0.83318  1.0000
  N   N5        1.0  0.70096  0.53736  0.14126  1.0000
  N   N6        1.0  0.29904  0.46264  0.85873  1.0000
  O   O1        1.0  0.88737  0.11632  0.92303  1.0000
  O   O2        1.0  0.11262  0.88370  0.07698  1.0000
  O   O3        1.0  0.85303  0.10946  0.24438  1.0000
  O   O4        1.0  0.14697  0.89052  0.75563  1.0000
  O   O5        1.0  0.70159  0.97429  0.40821  1.0000
  O   O6        1.0  0.29834  0.02575  0.59181  1.0000
  O   O7        1.0  0.69900  0.00734  0.89536  1.0000
  O   O8        1.0  0.30099  0.99268  0.10464  1.0000
  O   O9        1.0  0.50782  0.09599  0.19858  1.0000
  O   O10       1.0  0.49218  0.90402  0.80141  1.0000
  O   O11       1.0  0.13917  0.42896  0.35976  1.0000
  O   O12       1.0  0.86089  0.57101  0.64026  1.0000
