data_image0
_chemical_formula_structural       Cu6H24C34S4N14F8
_chemical_formula_sum              "Cu6 H24 C34 S4 N14 F8"
_cell_length_a       8.7451
_cell_length_b       11.5553
_cell_length_c       11.7098
_cell_angle_alpha    95.1087
_cell_angle_beta     105.017
_cell_angle_gamma    107.1

_space_group_name_H-M_alt    "P 1"
_space_group_IT_number       1

loop_
  _space_group_symop_operation_xyz
  'x, y, z'

loop_
  _atom_site_type_symbol
  _atom_site_label
  _atom_site_symmetry_multiplicity
  _atom_site_fract_x
  _atom_site_fract_y
  _atom_site_fract_z
  _atom_site_occupancy
  Cu  Cu1       1.0  0.02224  0.08506  0.27336  1.0000
  Cu  Cu2       1.0  0.97776  0.91494  0.72664  1.0000
  Cu  Cu3       1.0  0.64187  0.82170  0.30392  1.0000
  Cu  Cu4       1.0  0.35813  0.17830  0.69608  1.0000
  Cu  Cu5       1.0  0.90196  0.37342  0.00825  1.0000
  Cu  Cu6       1.0  0.09804  0.62658  0.99175  1.0000
  H   H1        1.0  0.60751  0.03167  0.63247  1.0000
  H   H2        1.0  0.39248  0.96833  0.36753  1.0000
  H   H3        1.0  0.20786  0.75200  0.70281  1.0000
  H   H4        1.0  0.79214  0.24799  0.29719  1.0000
  H   H5        1.0  0.38330  0.78207  0.91617  1.0000
  H   H6        1.0  0.61670  0.21793  0.08383  1.0000
  H   H7        1.0  0.24366  0.39951  0.67045  1.0000
  H   H8        1.0  0.75633  0.60049  0.32955  1.0000
  H   H9        1.0  0.60708  0.71127  0.60505  1.0000
  H   H10       1.0  0.39292  0.28873  0.39495  1.0000
  H   H11       1.0  0.42083  0.68287  0.39636  1.0000
  H   H12       1.0  0.57918  0.31714  0.60364  1.0000
  H   H13       1.0  0.07401  0.42612  0.24407  1.0000
  H   H14       1.0  0.92599  0.57388  0.75593  1.0000
  H   H15       1.0  0.15541  0.72859  0.40316  1.0000
  H   H16       1.0  0.84459  0.27141  0.59684  1.0000
  H   H17       1.0  0.02608  0.76347  0.27858  1.0000
  H   H18       1.0  0.97392  0.23653  0.72142  1.0000
  H   H19       1.0  0.76487  0.02706  0.05857  1.0000
  H   H20       1.0  0.23513  0.97294  0.94143  1.0000
  H   H21       1.0  0.63260  0.71209  0.91891  1.0000
  H   H22       1.0  0.36740  0.28791  0.08109  1.0000
  H   H23       1.0  0.74284  0.67480  0.05003  1.0000
  H   H24       1.0  0.25717  0.32520  0.94997  1.0000
  C   C1        1.0  0.00694  0.19554  0.16742  1.0000
  C   C2        1.0  0.99307  0.80446  0.83258  1.0000
  C   C3        1.0  0.43896  0.74390  0.18757  1.0000
  C   C4        1.0  0.56105  0.25610  0.81243  1.0000
  C   C5        1.0  0.15587  0.11170  0.43287  1.0000
  C   C6        1.0  0.84412  0.88831  0.56713  1.0000
  C   C7        1.0  0.04573  0.59308  0.25207  1.0000
  C   C8        1.0  0.95427  0.40692  0.74793  1.0000
  C   C9        1.0  0.74281  0.85043  0.06674  1.0000
  C   C10       1.0  0.25719  0.14958  0.93326  1.0000
  C   C11       1.0  0.59529  0.92101  0.89346  1.0000
  C   C12       1.0  0.40472  0.07899  0.10654  1.0000
  C   C13       1.0  0.65367  0.99127  0.81264  1.0000
  C   C14       1.0  0.34633  0.00873  0.18736  1.0000
  C   C15       1.0  0.55825  0.97775  0.69426  1.0000
  C   C16       1.0  0.44175  0.02225  0.30574  1.0000
  C   C17       1.0  0.39958  0.88981  0.65854  1.0000
  C   C18       1.0  0.60042  0.11019  0.34146  1.0000
  C   C19       1.0  0.33370  0.81858  0.73494  1.0000
  C   C20       1.0  0.66630  0.18141  0.26506  1.0000
  C   C21       1.0  0.43266  0.83541  0.85348  1.0000
  C   C22       1.0  0.56733  0.16458  0.14652  1.0000
  C   C23       1.0  0.22437  0.52890  0.41610  1.0000
  C   C24       1.0  0.77563  0.47110  0.58390  1.0000
  C   C25       1.0  0.17912  0.45036  0.49512  1.0000
  C   C26       1.0  0.82089  0.54964  0.50488  1.0000
  C   C27       1.0  0.28122  0.46210  0.61104  1.0000
  C   C28       1.0  0.71877  0.53790  0.38896  1.0000
  C   C29       1.0  0.43325  0.55780  0.64736  1.0000
  C   C30       1.0  0.56676  0.44220  0.35264  1.0000
  C   C31       1.0  0.48563  0.63863  0.57365  1.0000
  C   C32       1.0  0.51436  0.36136  0.42635  1.0000
  C   C33       1.0  0.38025  0.62271  0.45732  1.0000
  C   C34       1.0  0.61975  0.37729  0.54268  1.0000
  S   S1        1.0  0.90602  0.55358  0.10954  1.0000
  S   S2        1.0  0.09398  0.44642  0.89046  1.0000
  S   S3        1.0  0.85800  0.88568  0.21734  1.0000
  S   S4        1.0  0.14200  0.11432  0.78265  1.0000
  N   N1        1.0  0.98686  0.27005  0.10774  1.0000
  N   N2        1.0  0.01313  0.72996  0.89225  1.0000
  N   N3        1.0  0.31240  0.69836  0.10969  1.0000
  N   N4        1.0  0.68760  0.30164  0.89031  1.0000
  N   N5        1.0  0.24044  0.13483  0.53345  1.0000
  N   N6        1.0  0.75955  0.86517  0.46655  1.0000
  N   N7        1.0  0.11375  0.51054  0.29850  1.0000
  N   N8        1.0  0.88626  0.48946  0.70151  1.0000
  N   N9        1.0  0.08250  0.70403  0.31607  1.0000
  N   N10       1.0  0.91750  0.29598  0.68393  1.0000
  N   N11       1.0  0.70004  0.93926  0.01259  1.0000
  N   N12       1.0  0.29995  0.06074  0.98741  1.0000
  N   N13       1.0  0.69278  0.73567  0.00869  1.0000
  N   N14       1.0  0.30722  0.26433  0.99131  1.0000
  F   F1        1.0  0.02762  0.35898  0.45651  1.0000
  F   F2        1.0  0.97237  0.64102  0.54349  1.0000
  F   F3        1.0  0.30440  0.87314  0.54145  1.0000
  F   F4        1.0  0.69559  0.12686  0.45855  1.0000
  F   F5        1.0  0.80953  0.07536  0.85243  1.0000
  F   F6        1.0  0.19047  0.92465  0.14757  1.0000
  F   F7        1.0  0.53630  0.57153  0.76145  1.0000
  F   F8        1.0  0.46370  0.42847  0.23855  1.0000
