data_image0
_chemical_formula_structural       Cd2H28C34N12Cl4O2
_chemical_formula_sum              "Cd2 H28 C34 N12 Cl4 O2"
_cell_length_a       7.85246
_cell_length_b       8.45123
_cell_length_c       13.7671
_cell_angle_alpha    92.8891
_cell_angle_beta     89.9815
_cell_angle_gamma    107.455

_space_group_name_H-M_alt    "P 1"
_space_group_IT_number       1

loop_
  _space_group_symop_operation_xyz
  'x, y, z'

loop_
  _atom_site_type_symbol
  _atom_site_label
  _atom_site_symmetry_multiplicity
  _atom_site_fract_x
  _atom_site_fract_y
  _atom_site_fract_z
  _atom_site_occupancy
  Cd  Cd1       1.0  0.79162  0.80346  0.47727  1.0000
  Cd  Cd2       1.0  0.20838  0.19654  0.52272  1.0000
  H   H1        1.0  0.40207  0.66474  0.54107  1.0000
  H   H2        1.0  0.59793  0.33526  0.45893  1.0000
  H   H3        1.0  0.39548  0.81292  0.47707  1.0000
  H   H4        1.0  0.60452  0.18708  0.52293  1.0000
  H   H5        1.0  0.57724  0.67424  0.28922  1.0000
  H   H6        1.0  0.42276  0.32576  0.71078  1.0000
  H   H7        1.0  0.83006  0.16208  0.37936  1.0000
  H   H8        1.0  0.16994  0.83792  0.62064  1.0000
  H   H9        1.0  0.72350  0.26998  0.23215  1.0000
  H   H10       1.0  0.27650  0.73002  0.76785  1.0000
  H   H11       1.0  0.53336  0.06397  0.10752  1.0000
  H   H12       1.0  0.46663  0.93603  0.89248  1.0000
  H   H13       1.0  0.22886  0.42013  0.83094  1.0000
  H   H14       1.0  0.77115  0.57987  0.16906  1.0000
  H   H15       1.0  0.99737  0.16297  0.76468  1.0000
  H   H16       1.0  0.00264  0.83702  0.23532  1.0000
  H   H17       1.0  0.78744  0.98545  0.88325  1.0000
  H   H18       1.0  0.21257  0.01454  0.11675  1.0000
  H   H19       1.0  0.82189  0.07063  0.05876  1.0000
  H   H20       1.0  0.17811  0.92937  0.94124  1.0000
  H   H21       1.0  0.40491  0.30059  0.15242  1.0000
  H   H22       1.0  0.59509  0.69942  0.84758  1.0000
  H   H23       1.0  0.33515  0.15262  0.30872  1.0000
  H   H24       1.0  0.66485  0.84739  0.69128  1.0000
  H   H25       1.0  0.10140  0.49940  0.42301  1.0000
  H   H26       1.0  0.89859  0.50060  0.57699  1.0000
  H   H27       1.0  0.15060  0.65346  0.27232  1.0000
  H   H28       1.0  0.84940  0.34654  0.72768  1.0000
  C   C1        1.0  0.60210  0.80425  0.27332  1.0000
  C   C2        1.0  0.39790  0.19575  0.72668  1.0000
  C   C3        1.0  0.74673  0.07797  0.32372  1.0000
  C   C4        1.0  0.25327  0.92203  0.67628  1.0000
  C   C5        1.0  0.68691  0.13697  0.24178  1.0000
  C   C6        1.0  0.31308  0.86303  0.75823  1.0000
  C   C7        1.0  0.58113  0.02320  0.17336  1.0000
  C   C8        1.0  0.41887  0.97680  0.82664  1.0000
  C   C9        1.0  0.53874  0.85237  0.18833  1.0000
  C   C10       1.0  0.46127  0.14763  0.81167  1.0000
  C   C11       1.0  0.44763  0.73574  0.10958  1.0000
  C   C12       1.0  0.55238  0.26426  0.89041  1.0000
  C   C13       1.0  0.28236  0.52515  0.01781  1.0000
  C   C14       1.0  0.71764  0.47485  0.98219  1.0000
  C   C15       1.0  0.14825  0.37389  0.98001  1.0000
  C   C16       1.0  0.85175  0.62611  0.01999  1.0000
  C   C17       1.0  0.13782  0.33753  0.87909  1.0000
  C   C18       1.0  0.86218  0.66246  0.12091  1.0000
  C   C19       1.0  0.00762  0.19596  0.84262  1.0000
  C   C20       1.0  0.99238  0.80404  0.15738  1.0000
  C   C21       1.0  0.89101  0.09810  0.90763  1.0000
  C   C22       1.0  0.10899  0.90189  0.09237  1.0000
  C   C23       1.0  0.91102  0.14558  0.00659  1.0000
  C   C24       1.0  0.08898  0.85442  0.99341  1.0000
  C   C25       1.0  0.27987  0.48620  0.20013  1.0000
  C   C26       1.0  0.72013  0.51380  0.79987  1.0000
  C   C27       1.0  0.33219  0.34370  0.21010  1.0000
  C   C28       1.0  0.66782  0.65630  0.78990  1.0000
  C   C29       1.0  0.29618  0.26370  0.29680  1.0000
  C   C30       1.0  0.70382  0.73630  0.70320  1.0000
  C   C31       1.0  0.16571  0.45653  0.36136  1.0000
  C   C32       1.0  0.83429  0.54347  0.63865  1.0000
  C   C33       1.0  0.19387  0.54334  0.27648  1.0000
  C   C34       1.0  0.80613  0.45666  0.72352  1.0000
  N   N1        1.0  0.70417  0.91494  0.33888  1.0000
  N   N2        1.0  0.29583  0.08506  0.66113  1.0000
  N   N3        1.0  0.47589  0.77216  0.01707  1.0000
  N   N4        1.0  0.52411  0.22784  0.98293  1.0000
  N   N5        1.0  0.37242  0.64219  0.96039  1.0000
  N   N6        1.0  0.62758  0.35781  0.03961  1.0000
  N   N7        1.0  0.32679  0.57818  0.11414  1.0000
  N   N8        1.0  0.67321  0.42182  0.88586  1.0000
  N   N9        1.0  0.03656  0.28004  0.04338  1.0000
  N   N10       1.0  0.96343  0.71996  0.95662  1.0000
  N   N11       1.0  0.21555  0.31943  0.37168  1.0000
  N   N12       1.0  0.78444  0.68057  0.62831  1.0000
  Cl  Cl1       1.0  0.14328  0.89896  0.42948  1.0000
  Cl  Cl2       1.0  0.85673  0.10104  0.57052  1.0000
  Cl  Cl3       1.0  0.75541  0.52440  0.38160  1.0000
  Cl  Cl4       1.0  0.24459  0.47560  0.61840  1.0000
  O   O1        1.0  0.47774  0.76260  0.50784  1.0000
  O   O2        1.0  0.52226  0.23740  0.49216  1.0000
