data_image0
_chemical_formula_structural       Cd2H24C36S2I2N14
_chemical_formula_sum              "Cd2 H24 C36 S2 I2 N14"
_cell_length_a       8.172
_cell_length_b       8.83941
_cell_length_c       13.8654
_cell_angle_alpha    91.0289
_cell_angle_beta     90.1148
_cell_angle_gamma    109.566

_space_group_name_H-M_alt    "P 1"
_space_group_IT_number       1

loop_
  _space_group_symop_operation_xyz
  'x, y, z'

loop_
  _atom_site_type_symbol
  _atom_site_label
  _atom_site_symmetry_multiplicity
  _atom_site_fract_x
  _atom_site_fract_y
  _atom_site_fract_z
  _atom_site_occupancy
  Cd  Cd1       1.0  0.71485  0.69931  0.52280  1.0000
  Cd  Cd2       1.0  0.28514  0.30069  0.47720  1.0000
  H   H1        1.0  0.92814  0.82956  0.71607  1.0000
  H   H2        1.0  0.07186  0.17044  0.28393  1.0000
  H   H3        1.0  0.69183  0.35904  0.62416  1.0000
  H   H4        1.0  0.30817  0.64097  0.37584  1.0000
  H   H5        1.0  0.80070  0.25220  0.76873  1.0000
  H   H6        1.0  0.19930  0.74780  0.23127  1.0000
  H   H7        1.0  0.97877  0.44878  0.89332  1.0000
  H   H8        1.0  0.02123  0.55122  0.10668  1.0000
  H   H9        1.0  0.67166  0.40913  0.93517  1.0000
  H   H10       1.0  0.32834  0.59087  0.06483  1.0000
  H   H11       1.0  0.69767  0.50093  0.10693  1.0000
  H   H12       1.0  0.30233  0.49907  0.89307  1.0000
  H   H13       1.0  0.48343  0.33430  0.22663  1.0000
  H   H14       1.0  0.51657  0.66570  0.77337  1.0000
  H   H15       1.0  0.25430  0.08038  0.16638  1.0000
  H   H16       1.0  0.74570  0.91962  0.83362  1.0000
  H   H17       1.0  0.35392  0.86165  0.73755  1.0000
  H   H18       1.0  0.64608  0.13835  0.26245  1.0000
  H   H19       1.0  0.41006  0.01837  0.58599  1.0000
  H   H20       1.0  0.58994  0.98162  0.41401  1.0000
  H   H21       1.0  0.16860  0.33033  0.69204  1.0000
  H   H22       1.0  0.83139  0.66967  0.30795  1.0000
  H   H23       1.0  0.09288  0.18031  0.84697  1.0000
  H   H24       1.0  0.90712  0.81969  0.15303  1.0000
  C   C1        1.0  0.90515  0.70338  0.73111  1.0000
  C   C2        1.0  0.09485  0.29662  0.26889  1.0000
  C   C3        1.0  0.77118  0.43953  0.67976  1.0000
  C   C4        1.0  0.22882  0.56048  0.32024  1.0000
  C   C5        1.0  0.83249  0.38105  0.75977  1.0000
  C   C6        1.0  0.16751  0.61895  0.24023  1.0000
  C   C7        1.0  0.93187  0.48990  0.82847  1.0000
  C   C8        1.0  0.06813  0.51010  0.17153  1.0000
  C   C9        1.0  0.96829  0.65522  0.81501  1.0000
  C   C10       1.0  0.03171  0.34478  0.18499  1.0000
  C   C11       1.0  0.05477  0.76490  0.89393  1.0000
  C   C12       1.0  0.94523  0.23510  0.10607  1.0000
  C   C13       1.0  0.21388  0.96812  0.98431  1.0000
  C   C14       1.0  0.78612  0.03188  0.01569  1.0000
  C   C15       1.0  0.34407  0.11735  0.01918  1.0000
  C   C16       1.0  0.65593  0.88265  0.98082  1.0000
  C   C17       1.0  0.58070  0.33929  0.98835  1.0000
  C   C18       1.0  0.41930  0.66070  0.01165  1.0000
  C   C19       1.0  0.59559  0.39037  0.08486  1.0000
  C   C20       1.0  0.40441  0.60963  0.91514  1.0000
  C   C21       1.0  0.47618  0.29793  0.15061  1.0000
  C   C22       1.0  0.52382  0.70207  0.84939  1.0000
  C   C23       1.0  0.34846  0.15830  0.11768  1.0000
  C   C24       1.0  0.65154  0.84170  0.88232  1.0000
  C   C25       1.0  0.22208  0.01227  0.80388  1.0000
  C   C26       1.0  0.77793  0.98773  0.19612  1.0000
  C   C27       1.0  0.31174  0.96536  0.73059  1.0000
  C   C28       1.0  0.68826  0.03464  0.26941  1.0000
  C   C29       1.0  0.34325  0.05312  0.64591  1.0000
  C   C30       1.0  0.65675  0.94688  0.35409  1.0000
  C   C31       1.0  0.20821  0.22627  0.70553  1.0000
  C   C32       1.0  0.79179  0.77373  0.29447  1.0000
  C   C33       1.0  0.16839  0.14502  0.79168  1.0000
  C   C34       1.0  0.83162  0.85499  0.20832  1.0000
  C   C35       1.0  0.88526  0.10651  0.55498  1.0000
  C   C36       1.0  0.11473  0.89348  0.44502  1.0000
  S   S1        1.0  0.73736  0.98171  0.62102  1.0000
  S   S2        1.0  0.26264  0.01828  0.37898  1.0000
  I   I1        1.0  0.65413  0.38782  0.42120  1.0000
  I   I2        1.0  0.34586  0.61218  0.57880  1.0000
  N   N1        1.0  0.80755  0.59748  0.66590  1.0000
  N   N2        1.0  0.19245  0.40252  0.33410  1.0000
  N   N3        1.0  0.02501  0.72534  0.98590  1.0000
  N   N4        1.0  0.97499  0.27466  0.01410  1.0000
  N   N5        1.0  0.12464  0.85121  0.04188  1.0000
  N   N6        1.0  0.87536  0.14879  0.95812  1.0000
  N   N7        1.0  0.17294  0.91928  0.88919  1.0000
  N   N8        1.0  0.82707  0.08072  0.11082  1.0000
  N   N9        1.0  0.45823  0.20596  0.95508  1.0000
  N   N10       1.0  0.54177  0.79404  0.04492  1.0000
  N   N11       1.0  0.29337  0.18143  0.63347  1.0000
  N   N12       1.0  0.70663  0.81857  0.36653  1.0000
  N   N13       1.0  0.98944  0.19733  0.50587  1.0000
  N   N14       1.0  0.01056  0.80267  0.49413  1.0000
