data_image0
_chemical_formula_structural       Cd4H44C24N4Cl8O8
_chemical_formula_sum              "Cd4 H44 C24 N4 Cl8 O8"
_cell_length_a       6.86727
_cell_length_b       9.78967
_cell_length_c       13.4978
_cell_angle_alpha    89.9999
_cell_angle_beta     90
_cell_angle_gamma    89.9999

_space_group_name_H-M_alt    "P 1"
_space_group_IT_number       1

loop_
  _space_group_symop_operation_xyz
  'x, y, z'

loop_
  _atom_site_type_symbol
  _atom_site_label
  _atom_site_symmetry_multiplicity
  _atom_site_fract_x
  _atom_site_fract_y
  _atom_site_fract_z
  _atom_site_occupancy
  Cd  Cd1       1.0  0.16085  0.23839  0.02371  1.0000
  Cd  Cd2       1.0  0.66085  0.26161  0.97629  1.0000
  Cd  Cd3       1.0  0.83915  0.73839  0.47629  1.0000
  Cd  Cd4       1.0  0.33915  0.76161  0.52371  1.0000
  H   H1        1.0  0.97886  0.12871  0.24722  1.0000
  H   H2        1.0  0.47886  0.37129  0.75278  1.0000
  H   H3        1.0  0.02114  0.62871  0.25278  1.0000
  H   H4        1.0  0.52114  0.87129  0.74722  1.0000
  H   H5        1.0  0.79349  0.21920  0.20084  1.0000
  H   H6        1.0  0.29349  0.28080  0.79916  1.0000
  H   H7        1.0  0.20651  0.71920  0.29916  1.0000
  H   H8        1.0  0.70651  0.78080  0.70084  1.0000
  H   H9        1.0  0.39391  0.04721  0.32869  1.0000
  H   H10       1.0  0.89391  0.45279  0.67131  1.0000
  H   H11       1.0  0.60609  0.54721  0.17131  1.0000
  H   H12       1.0  0.10609  0.95279  0.82869  1.0000
  H   H13       1.0  0.53402  0.18515  0.45340  1.0000
  H   H14       1.0  0.03402  0.31485  0.54660  1.0000
  H   H15       1.0  0.46598  0.68515  0.04660  1.0000
  H   H16       1.0  0.96598  0.81485  0.95340  1.0000
  H   H17       1.0  0.36560  0.29140  0.39067  1.0000
  H   H18       1.0  0.86560  0.20860  0.60933  1.0000
  H   H19       1.0  0.63440  0.79140  0.10933  1.0000
  H   H20       1.0  0.13440  0.70860  0.89067  1.0000
  H   H21       1.0  0.68435  0.41171  0.42635  1.0000
  H   H22       1.0  0.18435  0.08829  0.57366  1.0000
  H   H23       1.0  0.31565  0.91171  0.07366  1.0000
  H   H24       1.0  0.81565  0.58829  0.92635  1.0000
  H   H25       1.0  0.63694  0.40327  0.29802  1.0000
  H   H26       1.0  0.13694  0.09673  0.70198  1.0000
  H   H27       1.0  0.36306  0.90327  0.20198  1.0000
  H   H28       1.0  0.86306  0.59673  0.79802  1.0000
  H   H29       1.0  0.97833  0.34171  0.32560  1.0000
  H   H30       1.0  0.47833  0.15829  0.67440  1.0000
  H   H31       1.0  0.02167  0.84171  0.17440  1.0000
  H   H32       1.0  0.52167  0.65829  0.82560  1.0000
  H   H33       1.0  0.91105  0.21184  0.41184  1.0000
  H   H34       1.0  0.41105  0.28816  0.58816  1.0000
  H   H35       1.0  0.08895  0.71184  0.08816  1.0000
  H   H36       1.0  0.58896  0.78816  0.91184  1.0000
  H   H37       1.0  0.73979  0.00780  0.35336  1.0000
  H   H38       1.0  0.23979  0.49221  0.64664  1.0000
  H   H39       1.0  0.26020  0.50780  0.14664  1.0000
  H   H40       1.0  0.76021  0.99220  0.85336  1.0000
  H   H41       1.0  0.69390  0.99110  0.22330  1.0000
  H   H42       1.0  0.19391  0.50891  0.77670  1.0000
  H   H43       1.0  0.30610  0.49109  0.27670  1.0000
  H   H44       1.0  0.80610  0.00891  0.72330  1.0000
  C   C1        1.0  0.41331  0.18462  0.20500  1.0000
  C   C2        1.0  0.91331  0.31538  0.79500  1.0000
  C   C3        1.0  0.58669  0.68461  0.29500  1.0000
  C   C4        1.0  0.08669  0.81538  0.70500  1.0000
  C   C5        1.0  0.49331  0.12726  0.30219  1.0000
  C   C6        1.0  0.99331  0.37274  0.69781  1.0000
  C   C7        1.0  0.50669  0.62726  0.19781  1.0000
  C   C8        1.0  0.00669  0.87274  0.80219  1.0000
  C   C9        1.0  0.50623  0.23854  0.38309  1.0000
  C   C10       1.0  0.00623  0.26146  0.61691  1.0000
  C   C11       1.0  0.49377  0.73854  0.11691  1.0000
  C   C12       1.0  0.99377  0.76146  0.88309  1.0000
  C   C13       1.0  0.66965  0.34106  0.36363  1.0000
  C   C14       1.0  0.16965  0.15894  0.63637  1.0000
  C   C15       1.0  0.33035  0.84106  0.13637  1.0000
  C   C16       1.0  0.83035  0.65894  0.86363  1.0000
  C   C17       1.0  0.86326  0.26980  0.34660  1.0000
  C   C18       1.0  0.36326  0.23020  0.65340  1.0000
  C   C19       1.0  0.13674  0.76980  0.15340  1.0000
  C   C20       1.0  0.63674  0.73020  0.84660  1.0000
  C   C21       1.0  0.69376  0.06181  0.28627  1.0000
  C   C22       1.0  0.19376  0.43819  0.71373  1.0000
  C   C23       1.0  0.30624  0.56181  0.21373  1.0000
  C   C24       1.0  0.80624  0.93819  0.78627  1.0000
  N   N1        1.0  0.84303  0.16889  0.26412  1.0000
  N   N2        1.0  0.34303  0.33111  0.73588  1.0000
  N   N3        1.0  0.15697  0.66889  0.23588  1.0000
  N   N4        1.0  0.65697  0.83111  0.76412  1.0000
  Cl  Cl1       1.0  0.38110  0.44429  0.96288  1.0000
  Cl  Cl2       1.0  0.88110  0.05572  0.03712  1.0000
  Cl  Cl3       1.0  0.61890  0.94429  0.53712  1.0000
  Cl  Cl4       1.0  0.11890  0.55571  0.46288  1.0000
  Cl  Cl5       1.0  0.39982  0.07919  0.92131  1.0000
  Cl  Cl6       1.0  0.89982  0.42081  0.07869  1.0000
  Cl  Cl7       1.0  0.60018  0.57919  0.57869  1.0000
  Cl  Cl8       1.0  0.10018  0.92081  0.42131  1.0000
  O   O1        1.0  0.23016  0.17657  0.18783  1.0000
  O   O2        1.0  0.73016  0.32343  0.81217  1.0000
  O   O3        1.0  0.76984  0.67657  0.31216  1.0000
  O   O4        1.0  0.26984  0.82343  0.68783  1.0000
  O   O5        1.0  0.53386  0.23931  0.14600  1.0000
  O   O6        1.0  0.03387  0.26069  0.85400  1.0000
  O   O7        1.0  0.46613  0.73931  0.35400  1.0000
  O   O8        1.0  0.96613  0.76069  0.64600  1.0000
