data_image0
_chemical_formula_structural       Cd2H28C34Br4N12O2
_chemical_formula_sum              "Cd2 H28 C34 Br4 N12 O2"
_cell_length_a       8.01928
_cell_length_b       8.62367
_cell_length_c       13.7835
_cell_angle_alpha    92.4946
_cell_angle_beta     90.4514
_cell_angle_gamma    106.798

_space_group_name_H-M_alt    "P 1"
_space_group_IT_number       1

loop_
  _space_group_symop_operation_xyz
  'x, y, z'

loop_
  _atom_site_type_symbol
  _atom_site_label
  _atom_site_symmetry_multiplicity
  _atom_site_fract_x
  _atom_site_fract_y
  _atom_site_fract_z
  _atom_site_occupancy
  Cd  Cd1       1.0  0.71136  0.19930  0.02286  1.0000
  Cd  Cd2       1.0  0.28864  0.80069  0.97714  1.0000
  H   H1        1.0  0.08994  0.32765  0.96088  1.0000
  H   H2        1.0  0.91005  0.67235  0.03912  1.0000
  H   H3        1.0  0.09428  0.18354  0.02637  1.0000
  H   H4        1.0  0.90571  0.81646  0.97363  1.0000
  H   H5        1.0  0.92457  0.32710  0.21224  1.0000
  H   H6        1.0  0.07543  0.67290  0.78776  1.0000
  H   H7        1.0  0.67643  0.85059  0.12606  1.0000
  H   H8        1.0  0.32357  0.14941  0.87395  1.0000
  H   H9        1.0  0.78472  0.74645  0.27443  1.0000
  H   H10       1.0  0.21528  0.25355  0.72557  1.0000
  H   H11       1.0  0.97097  0.94735  0.39691  1.0000
  H   H12       1.0  0.02903  0.05265  0.60309  1.0000
  H   H13       1.0  0.27337  0.58386  0.66778  1.0000
  H   H14       1.0  0.72663  0.41615  0.33222  1.0000
  H   H15       1.0  0.50157  0.83425  0.73013  1.0000
  H   H16       1.0  0.49843  0.16576  0.26986  1.0000
  H   H17       1.0  0.70383  0.00203  0.60920  1.0000
  H   H18       1.0  0.29617  0.99797  0.39080  1.0000
  H   H19       1.0  0.66443  0.91336  0.43445  1.0000
  H   H20       1.0  0.33557  0.08665  0.56555  1.0000
  H   H21       1.0  0.08980  0.69495  0.34747  1.0000
  H   H22       1.0  0.91019  0.30505  0.65253  1.0000
  H   H23       1.0  0.15757  0.84045  0.19188  1.0000
  H   H24       1.0  0.84243  0.15955  0.80813  1.0000
  H   H25       1.0  0.38851  0.50166  0.07862  1.0000
  H   H26       1.0  0.61149  0.49834  0.92138  1.0000
  H   H27       1.0  0.34237  0.35017  0.23010  1.0000
  H   H28       1.0  0.65762  0.64983  0.76989  1.0000
  C   C1        1.0  0.90061  0.20021  0.22911  1.0000
  C   C2        1.0  0.09939  0.79979  0.77089  1.0000
  C   C3        1.0  0.75887  0.93298  0.18097  1.0000
  C   C4        1.0  0.24113  0.06701  0.81903  1.0000
  C   C5        1.0  0.81962  0.87609  0.26322  1.0000
  C   C6        1.0  0.18038  0.12391  0.73678  1.0000
  C   C7        1.0  0.92379  0.98746  0.33075  1.0000
  C   C8        1.0  0.07621  0.01254  0.66925  1.0000
  C   C9        1.0  0.96441  0.15409  0.31451  1.0000
  C   C10       1.0  0.03559  0.84591  0.68550  1.0000
  C   C11       1.0  0.05506  0.26870  0.39222  1.0000
  C   C12       1.0  0.94494  0.73130  0.60778  1.0000
  C   C13       1.0  0.21700  0.47502  0.48226  1.0000
  C   C14       1.0  0.78301  0.52499  0.51774  1.0000
  C   C15       1.0  0.34816  0.62318  0.51797  1.0000
  C   C16       1.0  0.65185  0.37683  0.48203  1.0000
  C   C17       1.0  0.36094  0.66190  0.61831  1.0000
  C   C18       1.0  0.63906  0.33811  0.38168  1.0000
  C   C19       1.0  0.48943  0.79989  0.65264  1.0000
  C   C20       1.0  0.51058  0.20011  0.34736  1.0000
  C   C21       1.0  0.60171  0.89243  0.58631  1.0000
  C   C22       1.0  0.39830  0.10757  0.41369  1.0000
  C   C23       1.0  0.57910  0.84322  0.48799  1.0000
  C   C24       1.0  0.42091  0.15679  0.51200  1.0000
  C   C25       1.0  0.21361  0.51302  0.30064  1.0000
  C   C26       1.0  0.78639  0.48698  0.69936  1.0000
  C   C27       1.0  0.16120  0.65258  0.29034  1.0000
  C   C28       1.0  0.83880  0.34741  0.70966  1.0000
  C   C29       1.0  0.19643  0.73151  0.20388  1.0000
  C   C30       1.0  0.80357  0.26849  0.79612  1.0000
  C   C31       1.0  0.32542  0.54299  0.14013  1.0000
  C   C32       1.0  0.67458  0.45701  0.85987  1.0000
  C   C33       1.0  0.29845  0.45762  0.22495  1.0000
  C   C34       1.0  0.70155  0.54237  0.77505  1.0000
  Br  Br1       1.0  0.35247  0.10138  0.07555  1.0000
  Br  Br2       1.0  0.64753  0.89861  0.92445  1.0000
  Br  Br3       1.0  0.73819  0.48350  0.12253  1.0000
  Br  Br4       1.0  0.26179  0.51649  0.87747  1.0000
  N   N1        1.0  0.79968  0.09198  0.16452  1.0000
  N   N2        1.0  0.20032  0.90802  0.83548  1.0000
  N   N3        1.0  0.03214  0.23334  0.48498  1.0000
  N   N4        1.0  0.96787  0.76666  0.51502  1.0000
  N   N5        1.0  0.13348  0.36066  0.54064  1.0000
  N   N6        1.0  0.86652  0.63934  0.45936  1.0000
  N   N7        1.0  0.17012  0.42295  0.38658  1.0000
  N   N8        1.0  0.82989  0.57705  0.61342  1.0000
  N   N9        1.0  0.45540  0.71197  0.45331  1.0000
  N   N10       1.0  0.54460  0.28804  0.54669  1.0000
  N   N11       1.0  0.27599  0.67754  0.12947  1.0000
  N   N12       1.0  0.72400  0.32245  0.87053  1.0000
  O   O1        1.0  0.01471  0.23372  0.99428  1.0000
  O   O2        1.0  0.98528  0.76628  0.00572  1.0000
