data_image0
_chemical_formula_structural       Cu2H36Pd2C32N20O4
_chemical_formula_sum              "Cu2 H36 Pd2 C32 N20 O4"
_cell_length_a       10.1726
_cell_length_b       10.249
_cell_length_c       11.4083
_cell_angle_alpha    95.2066
_cell_angle_beta     89.9997
_cell_angle_gamma    119.754

_space_group_name_H-M_alt    "P 1"
_space_group_IT_number       1

loop_
  _space_group_symop_operation_xyz
  'x, y, z'

loop_
  _atom_site_type_symbol
  _atom_site_label
  _atom_site_symmetry_multiplicity
  _atom_site_fract_x
  _atom_site_fract_y
  _atom_site_fract_z
  _atom_site_occupancy
  Cu  Cu1       1.0  0.13699  0.00000  0.75000  1.0000
  Cu  Cu2       1.0  0.86302  1.00000  0.25000  1.0000
  H   H1        1.0  0.12234  0.14058  0.58089  1.0000
  H   H2        1.0  0.98176  0.85942  0.91910  1.0000
  H   H3        1.0  0.87766  0.85942  0.41910  1.0000
  H   H4        1.0  0.01823  0.14057  0.08090  1.0000
  H   H5        1.0  0.27206  0.26168  0.66871  1.0000
  H   H6        1.0  0.01038  0.73832  0.83129  1.0000
  H   H7        1.0  0.72794  0.73832  0.33129  1.0000
  H   H8        1.0  0.98962  0.26168  0.16871  1.0000
  H   H9        1.0  0.28392  0.13869  0.57266  1.0000
  H   H10       1.0  0.14523  0.86131  0.92734  1.0000
  H   H11       1.0  0.71609  0.86131  0.42734  1.0000
  H   H12       1.0  0.85477  0.13869  0.07266  1.0000
  H   H13       1.0  0.27859  0.53510  0.26846  1.0000
  H   H14       1.0  0.74348  0.46489  0.23154  1.0000
  H   H15       1.0  0.72142  0.46490  0.73154  1.0000
  H   H16       1.0  0.25652  0.53511  0.76846  1.0000
  H   H17       1.0  0.43338  0.63583  0.37219  1.0000
  H   H18       1.0  0.79756  0.36417  0.12781  1.0000
  H   H19       1.0  0.56662  0.36417  0.62781  1.0000
  H   H20       1.0  0.20245  0.63583  0.87219  1.0000
  H   H21       1.0  0.38981  0.11178  0.96269  1.0000
  H   H22       1.0  0.27803  0.88822  0.53731  1.0000
  H   H23       1.0  0.61019  0.88823  0.03731  1.0000
  H   H24       1.0  0.72197  0.11178  0.46269  1.0000
  H   H25       1.0  0.51392  0.28750  0.14427  1.0000
  H   H26       1.0  0.22642  0.71250  0.35572  1.0000
  H   H27       1.0  0.48608  0.71250  0.85572  1.0000
  H   H28       1.0  0.77358  0.28750  0.64428  1.0000
  H   H29       1.0  0.24860  0.49899  0.07418  1.0000
  H   H30       1.0  0.74960  0.50100  0.42582  1.0000
  H   H31       1.0  0.75141  0.50101  0.92582  1.0000
  H   H32       1.0  0.25040  0.49899  0.57418  1.0000
  H   H33       1.0  0.13326  0.31180  0.89742  1.0000
  H   H34       1.0  0.82146  0.68819  0.60258  1.0000
  H   H35       1.0  0.86674  0.68820  0.10259  1.0000
  H   H36       1.0  0.17854  0.31180  0.39742  1.0000
  Pd  Pd1       1.0  0.63562  0.00000  0.75000  1.0000
  Pd  Pd2       1.0  0.36438  0.00000  0.25000  1.0000
  C   C1        1.0  0.55657  0.85220  0.60673  1.0000
  C   C2        1.0  0.70437  0.14780  0.89327  1.0000
  C   C3        1.0  0.44342  0.14780  0.39327  1.0000
  C   C4        1.0  0.29562  0.85220  0.10673  1.0000
  C   C5        1.0  0.44348  0.99999  0.75000  1.0000
  C   C6        1.0  0.55652  0.00000  0.25000  1.0000
  C   C7        1.0  0.82969  0.00001  0.75000  1.0000
  C   C8        1.0  0.17032  1.00000  0.25000  1.0000
  C   C9        1.0  0.36038  0.19827  0.99063  1.0000
  C   C10       1.0  0.16211  0.80172  0.50937  1.0000
  C   C11       1.0  0.63961  0.80173  0.00937  1.0000
  C   C12       1.0  0.83789  0.19828  0.49063  1.0000
  C   C13       1.0  0.43051  0.29708  0.09160  1.0000
  C   C14       1.0  0.13344  0.70291  0.40840  1.0000
  C   C15       1.0  0.56948  0.70291  0.90839  1.0000
  C   C16       1.0  0.86657  0.29709  0.59161  1.0000
  C   C17       1.0  0.38997  0.40628  0.12567  1.0000
  C   C18       1.0  0.98369  0.59371  0.37432  1.0000
  C   C19       1.0  0.61003  0.59372  0.87433  1.0000
  C   C20       1.0  0.01631  0.40628  0.62567  1.0000
  C   C21       1.0  0.28289  0.41442  0.05411  1.0000
  C   C22       1.0  0.86847  0.58557  0.44589  1.0000
  C   C23       1.0  0.71711  0.58559  0.94590  1.0000
  C   C24       1.0  0.13153  0.41442  0.55411  1.0000
  C   C25       1.0  0.21870  0.31019  0.95435  1.0000
  C   C26       1.0  0.90851  0.68981  0.54565  1.0000
  C   C27       1.0  0.78130  0.68982  0.04566  1.0000
  C   C28       1.0  0.09149  0.31019  0.45435  1.0000
  C   C29       1.0  0.46536  0.51004  0.23591  1.0000
  C   C30       1.0  0.95531  0.48995  0.26409  1.0000
  C   C31       1.0  0.53465  0.48996  0.76409  1.0000
  C   C32       1.0  0.04469  0.51004  0.73591  1.0000
  N   N1        1.0  0.50745  0.76804  0.52063  1.0000
  N   N2        1.0  0.73941  0.23196  0.97938  1.0000
  N   N3        1.0  0.49255  0.23196  0.47937  1.0000
  N   N4        1.0  0.26059  0.76804  0.02063  1.0000
  N   N5        1.0  0.32875  1.00000  0.75000  1.0000
  N   N6        1.0  0.67125  0.00000  0.25000  1.0000
  N   N7        1.0  0.94467  1.00000  0.75000  1.0000
  N   N8        1.0  0.05534  0.00000  0.25000  1.0000
  N   N9        1.0  0.21207  0.15155  0.62944  1.0000
  N   N10       1.0  0.06051  0.84845  0.87055  1.0000
  N   N11       1.0  0.78794  0.84845  0.37055  1.0000
  N   N12       1.0  0.93949  0.15155  0.12944  1.0000
  N   N13       1.0  0.25493  0.20287  0.92311  1.0000
  N   N14       1.0  0.05205  0.79712  0.57688  1.0000
  N   N15       1.0  0.74507  0.79713  0.07689  1.0000
  N   N16       1.0  0.94794  0.20287  0.42311  1.0000
  N   N17       1.0  0.38775  0.56693  0.29431  1.0000
  N   N18       1.0  0.82083  0.43307  0.20568  1.0000
  N   N19       1.0  0.61225  0.43308  0.70569  1.0000
  N   N20       1.0  0.17918  0.56693  0.79431  1.0000
  O   O1        1.0  0.59554  0.53856  0.26949  1.0000
  O   O2        1.0  0.05698  0.46144  0.23050  1.0000
  O   O3        1.0  0.40446  0.46145  0.73051  1.0000
  O   O4        1.0  0.94302  0.53856  0.76950  1.0000
