data_image0
_chemical_formula_structural       Fe4P4H36C8N8O16F4
_chemical_formula_sum              "Fe4 P4 H36 C8 N8 O16 F4"
_cell_length_a       7.40203
_cell_length_b       9.09546
_cell_length_c       9.81811
_cell_angle_alpha    100.664
_cell_angle_beta     89.5554
_cell_angle_gamma    90.7216

_space_group_name_H-M_alt    "P 1"
_space_group_IT_number       1

loop_
  _space_group_symop_operation_xyz
  'x, y, z'

loop_
  _atom_site_type_symbol
  _atom_site_label
  _atom_site_symmetry_multiplicity
  _atom_site_fract_x
  _atom_site_fract_y
  _atom_site_fract_z
  _atom_site_occupancy
  Fe  Fe1       1.0  0.11910  0.99618  0.73861  1.0000
  Fe  Fe2       1.0  0.61736  0.01323  0.76508  1.0000
  Fe  Fe3       1.0  0.88089  0.00382  0.26139  1.0000
  Fe  Fe4       1.0  0.38264  0.98677  0.23492  1.0000
  P   P1        1.0  0.86178  0.20679  0.58193  1.0000
  P   P2        1.0  0.36852  0.80125  0.91787  1.0000
  P   P3        1.0  0.13822  0.79321  0.41808  1.0000
  P   P4        1.0  0.63148  0.19875  0.08212  1.0000
  H   H1        1.0  0.79648  0.44315  0.46394  1.0000
  H   H2        1.0  0.31405  0.58547  0.06216  1.0000
  H   H3        1.0  0.20352  0.55684  0.53606  1.0000
  H   H4        1.0  0.68595  0.41453  0.93783  1.0000
  H   H5        1.0  0.16692  0.31862  0.16483  1.0000
  H   H6        1.0  0.66069  0.70438  0.35010  1.0000
  H   H7        1.0  0.83308  0.68138  0.83517  1.0000
  H   H8        1.0  0.33931  0.29562  0.64990  1.0000
  H   H9        1.0  0.02904  0.44806  0.10168  1.0000
  H   H10       1.0  0.51304  0.57955  0.41572  1.0000
  H   H11       1.0  0.97096  0.55195  0.89832  1.0000
  H   H12       1.0  0.48696  0.42045  0.58427  1.0000
  H   H13       1.0  0.15389  0.36876  0.86533  1.0000
  H   H14       1.0  0.64003  0.65415  0.65109  1.0000
  H   H15       1.0  0.84611  0.63124  0.13467  1.0000
  H   H16       1.0  0.35997  0.34585  0.34891  1.0000
  H   H17       1.0  0.33249  0.27356  0.92878  1.0000
  H   H18       1.0  0.82498  0.74711  0.58607  1.0000
  H   H19       1.0  0.66750  0.72644  0.07121  1.0000
  H   H20       1.0  0.17502  0.25289  0.41393  1.0000
  H   H21       1.0  0.94546  0.18853  0.93117  1.0000
  H   H22       1.0  0.44089  0.83729  0.58943  1.0000
  H   H23       1.0  0.05454  0.81147  0.06883  1.0000
  H   H24       1.0  0.55912  0.16271  0.41057  1.0000
  H   H25       1.0  0.10748  0.11238  0.00650  1.0000
  H   H26       1.0  0.60844  0.91361  0.51437  1.0000
  H   H27       1.0  0.89252  0.88762  0.99349  1.0000
  H   H28       1.0  0.39156  0.08639  0.48563  1.0000
  H   H29       1.0  0.26383  0.57196  0.22842  1.0000
  H   H30       1.0  0.74049  0.43896  0.29308  1.0000
  H   H31       1.0  0.73617  0.42804  0.77157  1.0000
  H   H32       1.0  0.25951  0.56104  0.70692  1.0000
  H   H33       1.0  0.43031  0.46009  0.13540  1.0000
  H   H34       1.0  0.91327  0.55228  0.37353  1.0000
  H   H35       1.0  0.56969  0.53991  0.86460  1.0000
  H   H36       1.0  0.08673  0.44772  0.62647  1.0000
  C   C1        1.0  0.16176  0.39462  0.09033  1.0000
  C   C2        1.0  0.64914  0.62957  0.42546  1.0000
  C   C3        1.0  0.83824  0.60539  0.90967  1.0000
  C   C4        1.0  0.35087  0.37043  0.57454  1.0000
  C   C5        1.0  0.19020  0.30459  0.94523  1.0000
  C   C6        1.0  0.68134  0.71821  0.57163  1.0000
  C   C7        1.0  0.80980  0.69541  0.05476  1.0000
  C   C8        1.0  0.31866  0.28179  0.42837  1.0000
  N   N1        1.0  0.08136  0.16734  0.92664  1.0000
  N   N2        1.0  0.57849  0.85829  0.59400  1.0000
  N   N3        1.0  0.91863  0.83268  0.07339  1.0000
  N   N4        1.0  0.42151  0.14170  0.40600  1.0000
  N   N5        1.0  0.30285  0.51160  0.13047  1.0000
  N   N6        1.0  0.78269  0.50751  0.38665  1.0000
  N   N7        1.0  0.69715  0.48841  0.86953  1.0000
  N   N8        1.0  0.21731  0.49249  0.61334  1.0000
  O   O1        1.0  0.03921  0.13929  0.62345  1.0000
  O   O2        1.0  0.54666  0.87779  0.87903  1.0000
  O   O3        1.0  0.96078  0.86072  0.37655  1.0000
  O   O4        1.0  0.45334  0.12221  0.12096  1.0000
  O   O5        1.0  0.86692  0.37990  0.62761  1.0000
  O   O6        1.0  0.37594  0.63049  0.86106  1.0000
  O   O7        1.0  0.13308  0.62010  0.37239  1.0000
  O   O8        1.0  0.62405  0.36951  0.13894  1.0000
  O   O9        1.0  0.69115  0.14405  0.64566  1.0000
  O   O10       1.0  0.19909  0.86550  0.86147  1.0000
  O   O11       1.0  0.30885  0.85596  0.35435  1.0000
  O   O12       1.0  0.80092  0.13450  0.13853  1.0000
  O   O13       1.0  0.83677  0.17560  0.42243  1.0000
  O   O14       1.0  0.35242  0.81965  0.07851  1.0000
  O   O15       1.0  0.16324  0.82439  0.57756  1.0000
  O   O16       1.0  0.64758  0.18036  0.92148  1.0000
  F   F1        1.0  0.85607  0.94320  0.78516  1.0000
  F   F2        1.0  0.37896  0.07671  0.72916  1.0000
  F   F3        1.0  0.14391  0.05679  0.21484  1.0000
  F   F4        1.0  0.62106  0.92328  0.27085  1.0000
