data_image0
_chemical_formula_structural       Cu2H16C20Se4N4O8
_chemical_formula_sum              "Cu2 H16 C20 Se4 N4 O8"
_cell_length_a       7.63449
_cell_length_b       8.0658
_cell_length_c       10.5324
_cell_angle_alpha    90.0007
_cell_angle_beta     89.9998
_cell_angle_gamma    112.258

_space_group_name_H-M_alt    "P 1"
_space_group_IT_number       1

loop_
  _space_group_symop_operation_xyz
  'x, y, z'

loop_
  _atom_site_type_symbol
  _atom_site_label
  _atom_site_symmetry_multiplicity
  _atom_site_fract_x
  _atom_site_fract_y
  _atom_site_fract_z
  _atom_site_occupancy
  Cu  Cu1       1.0  0.50000  1.00000  0.50000  1.0000
  Cu  Cu2       1.0  0.50000  0.50000  0.00000  1.0000
  H   H1        1.0  0.11497  0.93627  0.58640  1.0000
  H   H2        1.0  0.88503  0.56373  0.08639  1.0000
  H   H3        1.0  0.88503  0.06372  0.41360  1.0000
  H   H4        1.0  0.11497  0.43628  0.91360  1.0000
  H   H5        1.0  0.03033  0.48420  0.25427  1.0000
  H   H6        1.0  0.96966  0.01581  0.75426  1.0000
  H   H7        1.0  0.96968  0.51580  0.74572  1.0000
  H   H8        1.0  0.03035  0.98420  0.24573  1.0000
  H   H9        1.0  0.74005  0.50561  0.35240  1.0000
  H   H10       1.0  0.25993  0.99439  0.85239  1.0000
  H   H11       1.0  0.25995  0.49438  0.64760  1.0000
  H   H12       1.0  0.74007  0.00561  0.14761  1.0000
  H   H13       1.0  0.78286  0.73568  0.52659  1.0000
  H   H14       1.0  0.21713  0.76433  0.02657  1.0000
  H   H15       1.0  0.21714  0.26431  0.47341  1.0000
  H   H16       1.0  0.78286  0.23567  0.97343  1.0000
  C   C1        1.0  0.21843  0.69901  0.36907  1.0000
  C   C2        1.0  0.78156  0.80099  0.86907  1.0000
  C   C3        1.0  0.78157  0.30098  0.63093  1.0000
  C   C4        1.0  0.21844  0.19901  0.13093  1.0000
  C   C5        1.0  0.08595  0.83347  0.51374  1.0000
  C   C6        1.0  0.91404  0.66655  0.01373  1.0000
  C   C7        1.0  0.91405  0.16653  0.48626  1.0000
  C   C8        1.0  0.08596  0.33346  0.98627  1.0000
  C   C9        1.0  0.04157  0.58289  0.32774  1.0000
  C   C10       1.0  0.95842  0.91711  0.82774  1.0000
  C   C11       1.0  0.95844  0.41710  0.67225  1.0000
  C   C12       1.0  0.04158  0.08289  0.17226  1.0000
  C   C13       1.0  0.88064  0.59494  0.38310  1.0000
  C   C14       1.0  0.11935  0.90507  0.88309  1.0000
  C   C15       1.0  0.11937  0.40505  0.61689  1.0000
  C   C16       1.0  0.88065  0.09494  0.11691  1.0000
  C   C17       1.0  0.90372  0.72184  0.47861  1.0000
  C   C18       1.0  0.09627  0.77815  0.97860  1.0000
  C   C19       1.0  0.09628  0.27815  0.52139  1.0000
  C   C20       1.0  0.90373  0.22185  0.02140  1.0000
  Se  Se1       1.0  0.45836  0.69200  0.29856  1.0000
  Se  Se2       1.0  0.54163  0.80800  0.79857  1.0000
  Se  Se3       1.0  0.54164  0.30800  0.70144  1.0000
  Se  Se4       1.0  0.45838  0.19201  0.20143  1.0000
  N   N1        1.0  0.24107  0.82210  0.45951  1.0000
  N   N2        1.0  0.75892  0.67789  0.95950  1.0000
  N   N3        1.0  0.75893  0.17789  0.54050  1.0000
  N   N4        1.0  0.24108  0.32212  0.04050  1.0000
  O   O1        1.0  0.42890  0.72230  0.14268  1.0000
  O   O2        1.0  0.57110  0.77772  0.64268  1.0000
  O   O3        1.0  0.57110  0.27770  0.85732  1.0000
  O   O4        1.0  0.42890  0.22229  0.35732  1.0000
  O   O5        1.0  0.59864  0.90209  0.35825  1.0000
  O   O6        1.0  0.40136  0.59791  0.85825  1.0000
  O   O7        1.0  0.40136  0.09791  0.64175  1.0000
  O   O8        1.0  0.59864  0.40211  0.14175  1.0000
