data_image0
_chemical_formula_structural       CdH28C36Br4N8O4
_chemical_formula_sum              "Cd1 H28 C36 Br4 N8 O4"
_cell_length_a       8.91908
_cell_length_b       9.98634
_cell_length_c       11.7675
_cell_angle_alpha    108.941
_cell_angle_beta     105.045
_cell_angle_gamma    91.844

_space_group_name_H-M_alt    "P 1"
_space_group_IT_number       1

loop_
  _space_group_symop_operation_xyz
  'x, y, z'

loop_
  _atom_site_type_symbol
  _atom_site_label
  _atom_site_symmetry_multiplicity
  _atom_site_fract_x
  _atom_site_fract_y
  _atom_site_fract_z
  _atom_site_occupancy
  Cd  Cd1       1.0  0.99999  0.50001  0.00000  1.0000
  H   H1        1.0  0.25925  0.98782  0.18595  1.0000
  H   H2        1.0  0.74075  0.01217  0.81401  1.0000
  H   H3        1.0  0.27232  0.16071  0.29588  1.0000
  H   H4        1.0  0.72768  0.83926  0.70411  1.0000
  H   H5        1.0  0.47998  0.27868  0.14590  1.0000
  H   H6        1.0  0.52005  0.72132  0.85411  1.0000
  H   H7        1.0  0.81094  0.01314  0.38421  1.0000
  H   H8        1.0  0.18905  0.98686  0.61580  1.0000
  H   H9        1.0  0.08639  0.15813  0.82676  1.0000
  H   H10       1.0  0.91360  0.84191  0.17325  1.0000
  H   H11       1.0  0.60356  0.77280  0.12455  1.0000
  H   H12       1.0  0.39645  0.22719  0.87545  1.0000
  H   H13       1.0  0.15059  0.34632  0.21514  1.0000
  H   H14       1.0  0.84942  0.65371  0.78488  1.0000
  H   H15       1.0  0.41457  0.96526  0.38366  1.0000
  H   H16       1.0  0.58543  0.03474  0.61633  1.0000
  H   H17       1.0  0.59757  0.89741  0.40076  1.0000
  H   H18       1.0  0.40242  0.10258  0.59924  1.0000
  H   H19       1.0  0.20844  0.76687  0.26230  1.0000
  H   H20       1.0  0.79155  0.23313  0.73768  1.0000
  H   H21       1.0  0.93529  0.19066  0.31896  1.0000
  H   H22       1.0  0.06472  0.80933  0.68106  1.0000
  H   H23       1.0  0.37437  0.55003  0.95563  1.0000
  H   H24       1.0  0.62563  0.44996  0.04437  1.0000
  H   H25       1.0  0.76887  0.31979  0.19511  1.0000
  H   H26       1.0  0.23116  0.68020  0.80490  1.0000
  H   H27       1.0  0.24413  0.98148  0.94840  1.0000
  H   H28       1.0  0.75587  0.01855  0.05160  1.0000
  C   C1        1.0  0.13597  0.52153  0.46784  1.0000
  C   C2        1.0  0.86401  0.47846  0.53216  1.0000
  C   C3        1.0  0.86468  0.54770  0.44618  1.0000
  C   C4        1.0  0.13531  0.45229  0.55382  1.0000
  C   C5        1.0  0.30368  0.10041  0.21045  1.0000
  C   C6        1.0  0.69633  0.89958  0.78954  1.0000
  C   C7        1.0  0.99959  0.56859  0.41151  1.0000
  C   C8        1.0  0.00040  0.43141  0.58848  1.0000
  C   C9        1.0  0.55191  0.21937  0.19759  1.0000
  C   C10       1.0  0.44811  0.78062  0.80241  1.0000
  C   C11       1.0  0.73819  0.07132  0.33156  1.0000
  C   C12       1.0  0.26181  0.92867  0.66845  1.0000
  C   C13       1.0  0.99583  0.63185  0.30865  1.0000
  C   C14       1.0  0.00416  0.36814  0.69134  1.0000
  C   C15       1.0  0.57515  0.04484  0.30145  1.0000
  C   C16       1.0  0.42485  0.95515  0.69855  1.0000
  C   C17       1.0  0.12365  0.16986  0.92555  1.0000
  C   C18       1.0  0.87635  0.83017  0.07446  1.0000
  C   C19       1.0  0.48920  0.73658  0.12741  1.0000
  C   C20       1.0  0.51080  0.26342  0.87260  1.0000
  C   C21       1.0  0.15340  0.27197  0.12530  1.0000
  C   C22       1.0  0.84662  0.72805  0.87472  1.0000
  C   C23       1.0  0.48033  0.12133  0.23537  1.0000
  C   C24       1.0  0.51968  0.87866  0.76463  1.0000
  C   C25       1.0  0.50514  0.92993  0.33656  1.0000
  C   C26       1.0  0.49486  0.07006  0.66343  1.0000
  C   C27       1.0  0.28409  0.73562  0.20117  1.0000
  C   C28       1.0  0.71591  0.26437  0.79882  1.0000
  C   C29       1.0  0.80810  0.17065  0.29450  1.0000
  C   C30       1.0  0.19191  0.82934  0.70551  1.0000
  C   C31       1.0  0.37494  0.62751  0.04516  1.0000
  C   C32       1.0  0.62505  0.37249  0.95484  1.0000
  C   C33       1.0  0.71475  0.24326  0.22568  1.0000
  C   C34       1.0  0.28526  0.75672  0.77432  1.0000
  C   C35       1.0  0.20067  0.08220  0.98404  1.0000
  C   C36       1.0  0.79933  0.91783  0.01596  1.0000
  Br  Br1       1.0  0.68017  0.61297  0.36858  1.0000
  Br  Br2       1.0  0.31983  0.38704  0.63141  1.0000
  Br  Br3       1.0  0.32383  0.55846  0.42950  1.0000
  Br  Br4       1.0  0.67616  0.44153  0.57050  1.0000
  N   N1        1.0  0.21854  0.14852  0.11065  1.0000
  N   N2        1.0  0.78147  0.85150  0.88936  1.0000
  N   N3        1.0  0.24854  0.62826  0.09237  1.0000
  N   N4        1.0  0.75145  0.37174  0.90763  1.0000
  N   N5        1.0  0.09545  0.28779  0.01516  1.0000
  N   N6        1.0  0.90456  0.71224  0.98486  1.0000
  N   N7        1.0  0.42954  0.80400  0.22602  1.0000
  N   N8        1.0  0.57046  0.19599  0.77398  1.0000
  O   O1        1.0  0.96237  0.53569  0.20034  1.0000
  O   O2        1.0  0.03762  0.46430  0.79966  1.0000
  O   O3        1.0  0.02539  0.76430  0.33940  1.0000
  O   O4        1.0  0.97459  0.23569  0.66059  1.0000
