data_image0
_chemical_formula_structural       CoH28C36Br4N8O4
_chemical_formula_sum              "Co1 H28 C36 Br4 N8 O4"
_cell_length_a       8.86655
_cell_length_b       9.63987
_cell_length_c       11.7864
_cell_angle_alpha    110.207
_cell_angle_beta     105.437
_cell_angle_gamma    90.1664

_space_group_name_H-M_alt    "P 1"
_space_group_IT_number       1

loop_
  _space_group_symop_operation_xyz
  'x, y, z'

loop_
  _atom_site_type_symbol
  _atom_site_label
  _atom_site_symmetry_multiplicity
  _atom_site_fract_x
  _atom_site_fract_y
  _atom_site_fract_z
  _atom_site_occupancy
  Co  Co1       1.0  0.50000  1.00000  0.00001  1.0000
  H   H1        1.0  0.73506  0.49769  0.17134  1.0000
  H   H2        1.0  0.26495  0.50229  0.82865  1.0000
  H   H3        1.0  0.75501  0.67641  0.28848  1.0000
  H   H4        1.0  0.24498  0.32356  0.71151  1.0000
  H   H5        1.0  0.82711  0.02279  0.94020  1.0000
  H   H6        1.0  0.17286  0.97721  0.05980  1.0000
  H   H7        1.0  0.27499  0.80469  0.20247  1.0000
  H   H8        1.0  0.72498  0.19532  0.79751  1.0000
  H   H9        1.0  0.06400  0.24485  0.11258  1.0000
  H   H10       1.0  0.93599  0.75515  0.88740  1.0000
  H   H11       1.0  0.62749  0.87197  0.21325  1.0000
  H   H12       1.0  0.37251  0.12801  0.78676  1.0000
  H   H13       1.0  0.66275  0.27096  0.24847  1.0000
  H   H14       1.0  0.33728  0.72904  0.75156  1.0000
  H   H15       1.0  0.98467  0.78513  0.14782  1.0000
  H   H16       1.0  0.01529  0.21486  0.85216  1.0000
  H   H17       1.0  0.60975  0.70226  0.82798  1.0000
  H   H18       1.0  0.39023  0.29774  0.17202  1.0000
  H   H19       1.0  0.27974  0.48212  0.38052  1.0000
  H   H20       1.0  0.72028  0.51792  0.61948  1.0000
  H   H21       1.0  0.42396  0.65663  0.32474  1.0000
  H   H22       1.0  0.57603  0.34342  0.67525  1.0000
  H   H23       1.0  0.05135  0.38149  0.39170  1.0000
  H   H24       1.0  0.94869  0.61851  0.60830  1.0000
  H   H25       1.0  0.87437  0.46680  0.37125  1.0000
  H   H26       1.0  0.12567  0.53319  0.62876  1.0000
  H   H27       1.0  0.75891  0.51037  0.94307  1.0000
  H   H28       1.0  0.24106  0.48962  0.05692  1.0000
  C   C1        1.0  0.63607  0.02568  0.46934  1.0000
  C   C2        1.0  0.36394  0.97433  0.53067  1.0000
  C   C3        1.0  0.36112  0.04776  0.44651  1.0000
  C   C4        1.0  0.63890  0.95224  0.55350  1.0000
  C   C5        1.0  0.78739  0.61284  0.20239  1.0000
  C   C6        1.0  0.21261  0.38714  0.79761  1.0000
  C   C7        1.0  0.49583  0.07280  0.41332  1.0000
  C   C8        1.0  0.50418  0.92720  0.58669  1.0000
  C   C9        1.0  0.82979  0.10582  0.03056  1.0000
  C   C10       1.0  0.17020  0.89418  0.96944  1.0000
  C   C11       1.0  0.04963  0.53360  0.29534  1.0000
  C   C12       1.0  0.95037  0.46641  0.70465  1.0000
  C   C13       1.0  0.21266  0.72907  0.22954  1.0000
  C   C14       1.0  0.78733  0.27096  0.77045  1.0000
  C   C15       1.0  0.48783  0.14311  0.31399  1.0000
  C   C16       1.0  0.51217  0.85689  0.68601  1.0000
  C   C17       1.0  0.94717  0.21474  0.11466  1.0000
  C   C18       1.0  0.05283  0.78526  0.88534  1.0000
  C   C19       1.0  0.64454  0.80157  0.12468  1.0000
  C   C20       1.0  0.35545  0.19842  0.87532  1.0000
  C   C21       1.0  0.73783  0.23149  0.18661  1.0000
  C   C22       1.0  0.26218  0.76852  0.81341  1.0000
  C   C23       1.0  0.04841  0.71732  0.19803  1.0000
  C   C24       1.0  0.95157  0.28267  0.80195  1.0000
  C   C25       1.0  0.63813  0.70961  0.92561  1.0000
  C   C26       1.0  0.36186  0.29039  0.07439  1.0000
  C   C27       1.0  0.21422  0.54842  0.32931  1.0000
  C   C28       1.0  0.78580  0.45160  0.67069  1.0000
  C   C29       1.0  0.96530  0.62087  0.23082  1.0000
  C   C30       1.0  0.03470  0.37913  0.76917  1.0000
  C   C31       1.0  0.29578  0.64629  0.29711  1.0000
  C   C32       1.0  0.70421  0.35373  0.70288  1.0000
  C   C33       1.0  0.96600  0.42090  0.32609  1.0000
  C   C34       1.0  0.03403  0.57911  0.67391  1.0000
  C   C35       1.0  0.70987  0.61330  0.98083  1.0000
  C   C36       1.0  0.29011  0.38668  0.01917  1.0000
  Br  Br1       1.0  0.17186  0.11358  0.36930  1.0000
  Br  Br2       1.0  0.82815  0.88641  0.63070  1.0000
  Br  Br3       1.0  0.82412  0.06938  0.43438  1.0000
  Br  Br4       1.0  0.17590  0.93063  0.56564  1.0000
  N   N1        1.0  0.88694  0.29285  0.21268  1.0000
  N   N2        1.0  0.11308  0.70715  0.78733  1.0000
  N   N3        1.0  0.70033  0.11790  0.07661  1.0000
  N   N4        1.0  0.29967  0.88210  0.92341  1.0000
  N   N5        1.0  0.71299  0.67288  0.10621  1.0000
  N   N6        1.0  0.28699  0.32710  0.89379  1.0000
  N   N7        1.0  0.59853  0.82694  0.01702  1.0000
  N   N8        1.0  0.40146  0.17305  0.98300  1.0000
  O   O1        1.0  0.51058  0.28231  0.35153  1.0000
  O   O2        1.0  0.48945  0.71769  0.64847  1.0000
  O   O3        1.0  0.45897  0.04824  0.20244  1.0000
  O   O4        1.0  0.54103  0.95176  0.79757  1.0000
