data_image0
_chemical_formula_structural       Cd2H32C24S2N8O16
_chemical_formula_sum              "Cd2 H32 C24 S2 N8 O16"
_cell_length_a       6.74834
_cell_length_b       10.1147
_cell_length_c       12.652
_cell_angle_alpha    90.0002
_cell_angle_beta     89.8654
_cell_angle_gamma    90.0001

_space_group_name_H-M_alt    "P 1"
_space_group_IT_number       1

loop_
  _space_group_symop_operation_xyz
  'x, y, z'

loop_
  _atom_site_type_symbol
  _atom_site_label
  _atom_site_symmetry_multiplicity
  _atom_site_fract_x
  _atom_site_fract_y
  _atom_site_fract_z
  _atom_site_occupancy
  Cd  Cd1       1.0  0.24628  0.43748  0.98860  1.0000
  Cd  Cd2       1.0  0.75372  0.93748  0.01140  1.0000
  H   H1        1.0  0.16764  0.79102  0.31821  1.0000
  H   H2        1.0  0.83236  0.29102  0.68179  1.0000
  H   H3        1.0  0.41178  0.15259  0.67458  1.0000
  H   H4        1.0  0.58822  0.65259  0.32542  1.0000
  H   H5        1.0  0.21955  0.39048  0.73454  1.0000
  H   H6        1.0  0.78045  0.89048  0.26546  1.0000
  H   H7        1.0  0.17844  0.51774  0.56961  1.0000
  H   H8        1.0  0.82156  0.01774  0.43039  1.0000
  H   H9        1.0  0.16514  0.87306  0.76052  1.0000
  H   H10       1.0  0.83486  0.37306  0.23948  1.0000
  H   H11       1.0  0.20265  0.73077  0.91768  1.0000
  H   H12       1.0  0.79735  0.23077  0.08232  1.0000
  H   H13       1.0  0.13527  0.89850  0.56909  1.0000
  H   H14       1.0  0.86473  0.39850  0.43091  1.0000
  H   H15       1.0  0.31947  0.15267  0.07611  1.0000
  H   H16       1.0  0.68053  0.65267  0.92389  1.0000
  H   H17       1.0  0.33597  0.02708  0.24335  1.0000
  H   H18       1.0  0.66403  0.52708  0.75665  1.0000
  H   H19       1.0  0.32112  0.40162  0.40906  1.0000
  H   H20       1.0  0.67888  0.90161  0.59094  1.0000
  H   H21       1.0  0.28664  0.51091  0.23487  1.0000
  H   H22       1.0  0.71337  0.01091  0.76513  1.0000
  H   H23       1.0  0.34795  0.02028  0.43411  1.0000
  H   H24       1.0  0.65205  0.52028  0.56589  1.0000
  H   H25       1.0  0.88406  0.56868  0.04928  1.0000
  H   H26       1.0  0.11594  0.06868  0.95072  1.0000
  H   H27       1.0  0.80150  0.43966  0.99101  1.0000
  H   H28       1.0  0.19850  0.93966  0.00899  1.0000
  H   H29       1.0  0.00927  0.24092  0.87267  1.0000
  H   H30       1.0  0.99073  0.74092  0.12733  1.0000
  H   H31       1.0  0.24515  0.22088  0.85822  1.0000
  H   H32       1.0  0.75485  0.72088  0.14178  1.0000
  C   C1        1.0  0.20448  0.49741  0.73746  1.0000
  C   C2        1.0  0.79552  0.99741  0.26254  1.0000
  C   C3        1.0  0.18429  0.56927  0.64495  1.0000
  C   C4        1.0  0.81571  0.06927  0.35505  1.0000
  C   C5        1.0  0.17014  0.70780  0.64998  1.0000
  C   C6        1.0  0.82985  0.20780  0.35002  1.0000
  C   C7        1.0  0.17549  0.76631  0.75059  1.0000
  C   C8        1.0  0.82451  0.26631  0.24941  1.0000
  C   C9        1.0  0.19530  0.68721  0.83933  1.0000
  C   C10       1.0  0.80470  0.18721  0.16067  1.0000
  C   C11       1.0  0.15220  0.79166  0.55736  1.0000
  C   C12       1.0  0.84780  0.29166  0.44264  1.0000
  C   C13       1.0  0.31457  0.20393  0.15152  1.0000
  C   C14       1.0  0.68543  0.70393  0.84848  1.0000
  C   C15       1.0  0.32607  0.13445  0.24571  1.0000
  C   C16       1.0  0.67393  0.63445  0.75430  1.0000
  C   C17       1.0  0.32905  0.20334  0.34205  1.0000
  C   C18       1.0  0.67095  0.70334  0.65795  1.0000
  C   C19       1.0  0.31684  0.34215  0.33745  1.0000
  C   C20       1.0  0.68316  0.84215  0.66255  1.0000
  C   C21       1.0  0.30061  0.40387  0.24005  1.0000
  C   C22       1.0  0.69939  0.90387  0.75995  1.0000
  C   C23       1.0  0.34745  0.12842  0.43954  1.0000
  C   C24       1.0  0.65255  0.62842  0.56046  1.0000
  S   S1        1.0  0.61390  0.24461  0.86681  1.0000
  S   S2        1.0  0.38610  0.74461  0.13319  1.0000
  N   N1        1.0  0.21076  0.55439  0.83399  1.0000
  N   N2        1.0  0.78924  0.05439  0.16601  1.0000
  N   N3        1.0  0.16260  0.74126  0.46369  1.0000
  N   N4        1.0  0.83740  0.24126  0.53632  1.0000
  N   N5        1.0  0.30020  0.33678  0.14762  1.0000
  N   N6        1.0  0.69981  0.83678  0.85238  1.0000
  N   N7        1.0  0.36470  0.18771  0.52946  1.0000
  N   N8        1.0  0.63530  0.68771  0.47054  1.0000
  O   O1        1.0  0.14533  0.83726  0.38706  1.0000
  O   O2        1.0  0.85465  0.33727  0.61295  1.0000
  O   O3        1.0  0.38241  0.09775  0.61098  1.0000
  O   O4        1.0  0.61759  0.59775  0.38902  1.0000
  O   O5        1.0  0.59057  0.37274  0.92469  1.0000
  O   O6        1.0  0.40943  0.87274  0.07531  1.0000
  O   O7        1.0  0.44850  0.23111  0.78911  1.0000
  O   O8        1.0  0.55150  0.73111  0.21089  1.0000
  O   O9        1.0  0.80625  0.24464  0.80760  1.0000
  O   O10       1.0  0.19375  0.74464  0.19239  1.0000
  O   O11       1.0  0.60806  0.13346  0.94267  1.0000
  O   O12       1.0  0.39194  0.63346  0.05732  1.0000
  O   O13       1.0  0.91165  0.47351  0.03519  1.0000
  O   O14       1.0  0.08835  0.97351  0.96481  1.0000
  O   O15       1.0  0.13741  0.23089  0.91270  1.0000
  O   O16       1.0  0.86259  0.73089  0.08730  1.0000
