data_image0
_chemical_formula_structural       K2H48C24I6O12
_chemical_formula_sum              "K2 H48 C24 I6 O12"
_cell_length_a       8.38481
_cell_length_b       8.48908
_cell_length_c       17.2528
_cell_angle_alpha    85.7714
_cell_angle_beta     81.4134
_cell_angle_gamma    60.4056

_space_group_name_H-M_alt    "P 1"
_space_group_IT_number       1

loop_
  _space_group_symop_operation_xyz
  'x, y, z'

loop_
  _atom_site_type_symbol
  _atom_site_label
  _atom_site_symmetry_multiplicity
  _atom_site_fract_x
  _atom_site_fract_y
  _atom_site_fract_z
  _atom_site_occupancy
  K   K1        1.0  0.01122  0.17034  0.31494  1.0000
  K   K2        1.0  0.18156  0.82965  0.81494  1.0000
  H   H1        1.0  0.51478  0.21559  0.49719  1.0000
  H   H2        1.0  0.73037  0.78441  0.99718  1.0000
  H   H3        1.0  0.65630  0.31872  0.50024  1.0000
  H   H4        1.0  0.97502  0.68127  0.00024  1.0000
  H   H5        1.0  0.79367  0.00705  0.55489  1.0000
  H   H6        1.0  0.80073  0.99294  0.05489  1.0000
  H   H7        1.0  0.80428  0.91810  0.46181  1.0000
  H   H8        1.0  0.72238  0.08190  0.96181  1.0000
  H   H9        1.0  0.15256  0.75277  0.46105  1.0000
  H   H10       1.0  0.90532  0.24723  0.96105  1.0000
  H   H11       1.0  0.11986  0.86215  0.55192  1.0000
  H   H12       1.0  0.98201  0.13786  0.05192  1.0000
  H   H13       1.0  0.27858  0.02730  0.48721  1.0000
  H   H14       1.0  0.30588  0.97271  0.98721  1.0000
  H   H15       1.0  0.42348  0.78603  0.48230  1.0000
  H   H16       1.0  0.20950  0.21398  0.98230  1.0000
  H   H17       1.0  0.61330  0.80089  0.36884  1.0000
  H   H18       1.0  0.41419  0.19910  0.86884  1.0000
  H   H19       1.0  0.48259  0.04240  0.37638  1.0000
  H   H20       1.0  0.52499  0.95760  0.87638  1.0000
  H   H21       1.0  0.64816  0.92516  0.24142  1.0000
  H   H22       1.0  0.57332  0.07484  0.74142  1.0000
  H   H23       1.0  0.50702  0.82288  0.23698  1.0000
  H   H24       1.0  0.32989  0.17712  0.73698  1.0000
  H   H25       1.0  0.37695  0.01664  0.12919  1.0000
  H   H26       1.0  0.39359  0.98336  0.62919  1.0000
  H   H27       1.0  0.50649  0.13163  0.13394  1.0000
  H   H28       1.0  0.63812  0.86837  0.63394  1.0000
  H   H29       1.0  0.20779  0.41848  0.17183  1.0000
  H   H30       1.0  0.62627  0.58152  0.67183  1.0000
  H   H31       1.0  0.23415  0.33856  0.07574  1.0000
  H   H32       1.0  0.57271  0.66144  0.57574  1.0000
  H   H33       1.0  0.89751  0.48026  0.07542  1.0000
  H   H34       1.0  0.37777  0.51974  0.57542  1.0000
  H   H35       1.0  0.87850  0.57829  0.16705  1.0000
  H   H36       1.0  0.45678  0.42171  0.66705  1.0000
  H   H37       1.0  0.59616  0.56112  0.14763  1.0000
  H   H38       1.0  0.15728  0.43888  0.64763  1.0000
  H   H39       1.0  0.73073  0.32018  0.14249  1.0000
  H   H40       1.0  0.05091  0.67982  0.64249  1.0000
  H   H41       1.0  0.52741  0.31460  0.25605  1.0000
  H   H42       1.0  0.84200  0.68541  0.75605  1.0000
  H   H43       1.0  0.40956  0.55565  0.26554  1.0000
  H   H44       1.0  0.96521  0.44435  0.76554  1.0000
  H   H45       1.0  0.53569  0.51680  0.39452  1.0000
  H   H46       1.0  0.05249  0.48320  0.89451  1.0000
  H   H47       1.0  0.37770  0.43282  0.39305  1.0000
  H   H48       1.0  0.81051  0.56719  0.89305  1.0000
  C   C1        1.0  0.64739  0.21014  0.47274  1.0000
  C   C2        1.0  0.85753  0.78986  0.97274  1.0000
  C   C3        1.0  0.80632  0.02871  0.49078  1.0000
  C   C4        1.0  0.83503  0.97129  0.99078  1.0000
  C   C5        1.0  0.13414  0.87630  0.48746  1.0000
  C   C6        1.0  0.01043  0.12371  0.98746  1.0000
  C   C7        1.0  0.29971  0.90165  0.46147  1.0000
  C   C8        1.0  0.20135  0.09836  0.96147  1.0000
  C   C9        1.0  0.49079  0.92257  0.35078  1.0000
  C   C10       1.0  0.41336  0.07743  0.85078  1.0000
  C   C11       1.0  0.51214  0.93553  0.26270  1.0000
  C   C12       1.0  0.44767  0.06447  0.76270  1.0000
  C   C13       1.0  0.37705  0.12978  0.15724  1.0000
  C   C14       1.0  0.50683  0.87022  0.65724  1.0000
  C   C15       1.0  0.21485  0.30833  0.13876  1.0000
  C   C16       1.0  0.52318  0.69167  0.63876  1.0000
  C   C17       1.0  0.88844  0.45963  0.13965  1.0000
  C   C18       1.0  0.34807  0.54037  0.63965  1.0000
  C   C19       1.0  0.71868  0.44226  0.16773  1.0000
  C   C20       1.0  0.16094  0.55774  0.66773  1.0000
  C   C21       1.0  0.52997  0.42905  0.28148  1.0000
  C   C22       1.0  0.95902  0.57095  0.78148  1.0000
  C   C23       1.0  0.51670  0.41198  0.36934  1.0000
  C   C24       1.0  0.92868  0.58802  0.86934  1.0000
  I   I1        1.0  0.96356  0.48091  0.47001  1.0000
  I   I2        1.0  0.44446  0.51909  0.97001  1.0000
  I   I3        1.0  0.01620  0.65511  0.32242  1.0000
  I   I4        1.0  0.67131  0.34487  0.82243  1.0000
  I   I5        1.0  0.08274  0.82780  0.17601  1.0000
  I   I6        1.0  0.91053  0.17219  0.67601  1.0000
  O   O1        1.0  0.65597  0.23553  0.38979  1.0000
  O   O2        1.0  0.89149  0.76447  0.88979  1.0000
  O   O3        1.0  0.97420  0.03199  0.46427  1.0000
  O   O4        1.0  0.00618  0.96801  0.96427  1.0000
  O   O5        1.0  0.32702  0.91100  0.37797  1.0000
  O   O6        1.0  0.23802  0.08901  0.87796  1.0000
  O   O7        1.0  0.36567  0.10542  0.24025  1.0000
  O   O8        1.0  0.47109  0.89458  0.74025  1.0000
  O   O9        1.0  0.04842  0.29797  0.15909  1.0000
  O   O10       1.0  0.34639  0.70203  0.65909  1.0000
  O   O11       1.0  0.69745  0.43153  0.25130  1.0000
  O   O12       1.0  0.12897  0.56848  0.75130  1.0000
