data_image0
_chemical_formula_structural       Cu2H18C26N6O8
_chemical_formula_sum              "Cu2 H18 C26 N6 O8"
_cell_length_a       8.2604
_cell_length_b       9.07289
_cell_length_c       9.1674
_cell_angle_alpha    114.485
_cell_angle_beta     95.5262
_cell_angle_gamma    103.081

_space_group_name_H-M_alt    "P 1"
_space_group_IT_number       1

loop_
  _space_group_symop_operation_xyz
  'x, y, z'

loop_
  _atom_site_type_symbol
  _atom_site_label
  _atom_site_symmetry_multiplicity
  _atom_site_fract_x
  _atom_site_fract_y
  _atom_site_fract_z
  _atom_site_occupancy
  Cu  Cu1       1.0  0.78463  0.72604  0.74303  1.0000
  Cu  Cu2       1.0  0.21540  0.27396  0.25696  1.0000
  H   H1        1.0  0.78545  0.26475  0.34523  1.0000
  H   H2        1.0  0.21457  0.73526  0.65478  1.0000
  H   H3        1.0  0.62749  0.57093  0.91962  1.0000
  H   H4        1.0  0.37251  0.42908  0.08038  1.0000
  H   H5        1.0  0.55933  0.28840  0.92127  1.0000
  H   H6        1.0  0.44066  0.71161  0.07875  1.0000
  H   H7        1.0  0.60844  0.04394  0.68474  1.0000
  H   H8        1.0  0.39157  0.95606  0.31527  1.0000
  H   H9        1.0  0.71357  0.09338  0.45639  1.0000
  H   H10       1.0  0.28644  0.90663  0.54362  1.0000
  H   H11       1.0  0.86721  0.36259  0.17144  1.0000
  H   H12       1.0  0.13281  0.63742  0.82858  1.0000
  H   H13       1.0  0.91461  0.59935  0.09153  1.0000
  H   H14       1.0  0.08539  0.40065  0.90847  1.0000
  H   H15       1.0  0.87651  0.87594  0.28147  1.0000
  H   H16       1.0  0.12349  0.12406  0.71852  1.0000
  H   H17       1.0  0.81486  0.91116  0.55471  1.0000
  H   H18       1.0  0.18513  0.08883  0.44528  1.0000
  C   C1        1.0  0.52612  0.89345  0.91438  1.0000
  C   C2        1.0  0.47387  0.10655  0.08561  1.0000
  C   C3        1.0  0.61609  0.03097  0.07980  1.0000
  C   C4        1.0  0.38391  0.96905  0.92020  1.0000
  C   C5        1.0  0.98076  0.05310  0.95764  1.0000
  C   C6        1.0  0.01922  0.94689  0.04233  1.0000
  C   C7        1.0  0.64340  0.46006  0.82022  1.0000
  C   C8        1.0  0.35660  0.53994  0.17979  1.0000
  C   C9        1.0  0.60565  0.30362  0.81976  1.0000
  C   C10       1.0  0.39434  0.69638  0.18025  1.0000
  C   C11       1.0  0.63273  0.16835  0.68777  1.0000
  C   C12       1.0  0.36727  0.83165  0.31223  1.0000
  C   C13       1.0  0.69179  0.19462  0.56207  1.0000
  C   C14       1.0  0.30821  0.80538  0.43793  1.0000
  C   C15       1.0  0.72703  0.35790  0.56970  1.0000
  C   C16       1.0  0.27297  0.64210  0.43031  1.0000
  C   C17       1.0  0.81232  0.51294  0.40502  1.0000
  C   C18       1.0  0.18768  0.48706  0.59498  1.0000
  C   C19       1.0  0.85348  0.48533  0.25150  1.0000
  C   C20       1.0  0.14652  0.51466  0.74851  1.0000
  C   C21       1.0  0.87939  0.61566  0.20747  1.0000
  C   C22       1.0  0.12061  0.38433  0.79253  1.0000
  C   C23       1.0  0.86066  0.77182  0.31402  1.0000
  C   C24       1.0  0.13934  0.22818  0.68598  1.0000
  C   C25       1.0  0.82433  0.79138  0.46371  1.0000
  C   C26       1.0  0.17567  0.20862  0.53629  1.0000
  N   N1        1.0  0.70497  0.48823  0.69955  1.0000
  N   N2        1.0  0.29503  0.51176  0.30045  1.0000
  N   N3        1.0  0.78659  0.37872  0.44279  1.0000
  N   N4        1.0  0.21341  0.62128  0.55722  1.0000
  N   N5        1.0  0.80318  0.66625  0.51105  1.0000
  N   N6        1.0  0.19682  0.33375  0.48894  1.0000
  O   O1        1.0  0.55085  0.76268  0.80893  1.0000
  O   O2        1.0  0.44913  0.23731  0.19107  1.0000
  O   O3        1.0  0.75391  0.06955  0.17721  1.0000
  O   O4        1.0  0.24609  0.93045  0.82279  1.0000
  O   O5        1.0  0.87487  0.97509  0.81999  1.0000
  O   O6        1.0  0.12513  0.02492  0.17998  1.0000
  O   O7        1.0  0.05455  0.21039  0.02916  1.0000
  O   O8        1.0  0.94544  0.78959  0.97085  1.0000
