data_image0
_chemical_formula_structural       Zn2H18C26N6O8
_chemical_formula_sum              "Zn2 H18 C26 N6 O8"
_cell_length_a       8.5556
_cell_length_b       8.94102
_cell_length_c       9.06574
_cell_angle_alpha    113.858
_cell_angle_beta     100.081
_cell_angle_gamma    98.4395

_space_group_name_H-M_alt    "P 1"
_space_group_IT_number       1

loop_
  _space_group_symop_operation_xyz
  'x, y, z'

loop_
  _atom_site_type_symbol
  _atom_site_label
  _atom_site_symmetry_multiplicity
  _atom_site_fract_x
  _atom_site_fract_y
  _atom_site_fract_z
  _atom_site_occupancy
  Zn  Zn1       1.0  0.22976  0.75322  0.76655  1.0000
  Zn  Zn2       1.0  0.77024  0.24678  0.23346  1.0000
  H   H1        1.0  0.21341  0.15321  0.23296  1.0000
  H   H2        1.0  0.78659  0.84679  0.76704  1.0000
  H   H3        1.0  0.39630  0.58898  0.93950  1.0000
  H   H4        1.0  0.60370  0.41102  0.06050  1.0000
  H   H5        1.0  0.45793  0.59149  0.22107  1.0000
  H   H6        1.0  0.54207  0.40851  0.77893  1.0000
  H   H7        1.0  0.39338  0.82310  0.45769  1.0000
  H   H8        1.0  0.60662  0.17690  0.54231  1.0000
  H   H9        1.0  0.28065  0.04447  0.40378  1.0000
  H   H10       1.0  0.71935  0.95553  0.59622  1.0000
  H   H11       1.0  0.13879  0.33270  0.14332  1.0000
  H   H12       1.0  0.86121  0.66730  0.85667  1.0000
  H   H13       1.0  0.08393  0.41650  0.91087  1.0000
  H   H14       1.0  0.91607  0.58350  0.08913  1.0000
  H   H15       1.0  0.10774  0.22441  0.62821  1.0000
  H   H16       1.0  0.89226  0.77559  0.37179  1.0000
  H   H17       1.0  0.17223  0.94781  0.58791  1.0000
  H   H18       1.0  0.82776  0.05219  0.41209  1.0000
  C   C1        1.0  0.37374  0.68751  0.04723  1.0000
  C   C2        1.0  0.62626  0.31249  0.95277  1.0000
  C   C3        1.0  0.40769  0.68943  0.20268  1.0000
  C   C4        1.0  0.59230  0.31056  0.79732  1.0000
  C   C5        1.0  0.37215  0.81896  0.33408  1.0000
  C   C6        1.0  0.62785  0.18104  0.66592  1.0000
  C   C7        1.0  0.30855  0.94079  0.30509  1.0000
  C   C8        1.0  0.69145  0.05921  0.69491  1.0000
  C   C9        1.0  0.27795  0.93111  0.14273  1.0000
  C   C10       1.0  0.72205  0.06889  0.85727  1.0000
  C   C11       1.0  0.18832  0.09585  0.98771  1.0000
  C   C12       1.0  0.81168  0.90416  0.01229  1.0000
  C   C13       1.0  0.14813  0.25204  0.01903  1.0000
  C   C14       1.0  0.85187  0.74796  0.98097  1.0000
  C   C15       1.0  0.11742  0.29814  0.89063  1.0000
  C   C16       1.0  0.88258  0.70186  0.10937  1.0000
  C   C17       1.0  0.12918  0.19090  0.73156  1.0000
  C   C18       1.0  0.87082  0.80910  0.26844  1.0000
  C   C19       1.0  0.16711  0.03976  0.70920  1.0000
  C   C20       1.0  0.83289  0.96024  0.29080  1.0000
  C   C21       1.0  0.47156  0.59345  0.59795  1.0000
  C   C22       1.0  0.52844  0.40655  0.40205  1.0000
  C   C23       1.0  0.38259  0.42193  0.46857  1.0000
  C   C24       1.0  0.61741  0.57807  0.53143  1.0000
  C   C25       1.0  0.02254  0.53693  0.44049  1.0000
  C   C26       1.0  0.97746  0.46307  0.55951  1.0000
  N   N1        1.0  0.30867  0.80401  0.01598  1.0000
  N   N2        1.0  0.69133  0.19599  0.98402  1.0000
  N   N3        1.0  0.21471  0.05551  0.11996  1.0000
  N   N4        1.0  0.78529  0.94449  0.88004  1.0000
  N   N5        1.0  0.19539  0.99058  0.83299  1.0000
  N   N6        1.0  0.80461  0.00942  0.16701  1.0000
  O   O1        1.0  0.44575  0.71174  0.72061  1.0000
  O   O2        1.0  0.55425  0.28826  0.27939  1.0000
  O   O3        1.0  0.24378  0.32547  0.42877  1.0000
  O   O4        1.0  0.75622  0.67453  0.57123  1.0000
  O   O5        1.0  0.13199  0.67249  0.50326  1.0000
  O   O6        1.0  0.86801  0.32750  0.49674  1.0000
  O   O7        1.0  0.94582  0.45613  0.28669  1.0000
  O   O8        1.0  0.05418  0.54387  0.71331  1.0000
