data_image0
_chemical_formula_structural       Cd2H28C38S4N2O4
_chemical_formula_sum              "Cd2 H28 C38 S4 N2 O4"
_cell_length_a       8.83154
_cell_length_b       9.7647
_cell_length_c       11.5047
_cell_angle_alpha    107.145
_cell_angle_beta     103.642
_cell_angle_gamma    100.56

_space_group_name_H-M_alt    "P 1"
_space_group_IT_number       1

loop_
  _space_group_symop_operation_xyz
  'x, y, z'

loop_
  _atom_site_type_symbol
  _atom_site_label
  _atom_site_symmetry_multiplicity
  _atom_site_fract_x
  _atom_site_fract_y
  _atom_site_fract_z
  _atom_site_occupancy
  Cd  Cd1       1.0  0.39005  0.59408  0.59947  1.0000
  Cd  Cd2       1.0  0.60995  0.40592  0.40053  1.0000
  H   H1        1.0  0.04019  0.58115  0.40781  1.0000
  H   H2        1.0  0.95981  0.41885  0.59219  1.0000
  H   H3        1.0  0.87696  0.74603  0.36195  1.0000
  H   H4        1.0  0.12304  0.25397  0.63804  1.0000
  H   H5        1.0  0.24992  0.11319  0.66684  1.0000
  H   H6        1.0  0.75008  0.88681  0.33316  1.0000
  H   H7        1.0  0.40039  0.92936  0.69876  1.0000
  H   H8        1.0  0.59961  0.07063  0.30124  1.0000
  H   H9        1.0  0.51724  0.82914  0.08701  1.0000
  H   H10       1.0  0.48277  0.17086  0.91299  1.0000
  H   H11       1.0  0.47834  0.82390  0.29496  1.0000
  H   H12       1.0  0.52166  0.17611  0.70504  1.0000
  H   H13       1.0  0.27534  0.61315  0.29747  1.0000
  H   H14       1.0  0.72466  0.38686  0.70253  1.0000
  H   H15       1.0  0.10540  0.41152  0.09509  1.0000
  H   H16       1.0  0.89459  0.58848  0.90490  1.0000
  H   H17       1.0  0.14072  0.41967  0.88690  1.0000
  H   H18       1.0  0.85928  0.58033  0.11309  1.0000
  H   H19       1.0  0.93923  0.27436  0.21792  1.0000
  H   H20       1.0  0.06076  0.72564  0.78209  1.0000
  H   H21       1.0  0.74930  0.04060  0.04808  1.0000
  H   H22       1.0  0.25070  0.95939  0.95193  1.0000
  H   H23       1.0  0.82110  0.80216  0.01596  1.0000
  H   H24       1.0  0.17891  0.19784  0.98404  1.0000
  H   H25       1.0  0.08678  0.79488  0.14917  1.0000
  H   H26       1.0  0.91323  0.20512  0.85084  1.0000
  H   H27       1.0  0.27293  0.02701  0.31973  1.0000
  H   H28       1.0  0.72707  0.97299  0.68028  1.0000
  C   C1        1.0  0.08336  0.69986  0.46303  1.0000
  C   C2        1.0  0.91664  0.30014  0.53696  1.0000
  C   C3        1.0  0.99182  0.79513  0.43805  1.0000
  C   C4        1.0  0.00817  0.20487  0.56195  1.0000
  C   C5        1.0  0.04777  0.94778  0.51084  1.0000
  C   C6        1.0  0.95223  0.05221  0.48916  1.0000
  C   C7        1.0  0.19859  0.99672  0.60600  1.0000
  C   C8        1.0  0.80140  0.00328  0.39400  1.0000
  C   C9        1.0  0.28384  0.89482  0.62439  1.0000
  C   C10       1.0  0.71616  0.10518  0.37561  1.0000
  C   C11       1.0  0.34857  0.61967  0.84785  1.0000
  C   C12       1.0  0.65143  0.38033  0.15215  1.0000
  C   C13       1.0  0.21995  0.30567  0.38143  1.0000
  C   C14       1.0  0.78005  0.69433  0.61857  1.0000
  C   C15       1.0  0.33135  0.62374  0.97452  1.0000
  C   C16       1.0  0.66866  0.37626  0.02548  1.0000
  C   C17       1.0  0.42702  0.73833  0.08974  1.0000
  C   C18       1.0  0.57298  0.26167  0.91026  1.0000
  C   C19       1.0  0.40540  0.73513  0.20517  1.0000
  C   C20       1.0  0.59460  0.26487  0.79483  1.0000
  C   C21       1.0  0.29054  0.61727  0.20727  1.0000
  C   C22       1.0  0.70945  0.38273  0.79273  1.0000
  C   C23       1.0  0.19503  0.50309  0.09306  1.0000
  C   C24       1.0  0.80497  0.49691  0.90694  1.0000
  C   C25       1.0  0.21438  0.50694  0.97733  1.0000
  C   C26       1.0  0.78562  0.49306  0.02268  1.0000
  C   C27       1.0  0.11740  0.16484  0.27873  1.0000
  C   C28       1.0  0.88260  0.83516  0.72128  1.0000
  C   C29       1.0  0.96990  0.16854  0.20107  1.0000
  C   C30       1.0  0.03010  0.83146  0.79893  1.0000
  C   C31       1.0  0.86431  0.03814  0.10745  1.0000
  C   C32       1.0  0.13569  0.96186  0.89255  1.0000
  C   C33       1.0  0.90548  0.90342  0.08949  1.0000
  C   C34       1.0  0.09452  0.09658  0.91051  1.0000
  C   C35       1.0  0.05315  0.89936  0.16442  1.0000
  C   C36       1.0  0.94685  0.10064  0.83558  1.0000
  C   C37       1.0  0.15863  0.02937  0.25933  1.0000
  C   C38       1.0  0.84138  0.97063  0.74067  1.0000
  S   S1        1.0  0.51621  0.73751  0.84099  1.0000
  S   S2        1.0  0.48379  0.26250  0.15901  1.0000
  S   S3        1.0  0.38624  0.30674  0.50229  1.0000
  S   S4        1.0  0.61376  0.69326  0.49771  1.0000
  N   N1        1.0  0.22796  0.74846  0.55451  1.0000
  N   N2        1.0  0.77204  0.25154  0.44549  1.0000
  O   O1        1.0  0.24150  0.52828  0.74757  1.0000
  O   O2        1.0  0.75851  0.47172  0.25243  1.0000
  O   O3        1.0  0.18490  0.42517  0.38646  1.0000
  O   O4        1.0  0.81510  0.57482  0.61354  1.0000
