data_image0
_chemical_formula_structural       H20Pb4C24I4N4O10
_chemical_formula_sum              "H20 Pb4 C24 I4 N4 O10"
_cell_length_a       7.92544
_cell_length_b       11.144
_cell_length_c       11.1439
_cell_angle_alpha    112.936
_cell_angle_beta     93.0881
_cell_angle_gamma    93.089

_space_group_name_H-M_alt    "P 1"
_space_group_IT_number       1

loop_
  _space_group_symop_operation_xyz
  'x, y, z'

loop_
  _atom_site_type_symbol
  _atom_site_label
  _atom_site_symmetry_multiplicity
  _atom_site_fract_x
  _atom_site_fract_y
  _atom_site_fract_z
  _atom_site_occupancy
  H   H1        1.0  0.79028  0.99449  0.48376  1.0000
  H   H2        1.0  0.70970  0.51624  0.00551  1.0000
  H   H3        1.0  0.20971  0.00552  0.51623  1.0000
  H   H4        1.0  0.29026  0.48375  0.99448  1.0000
  H   H5        1.0  0.56453  0.98827  0.80931  1.0000
  H   H6        1.0  0.93546  0.19071  0.01175  1.0000
  H   H7        1.0  0.43546  0.01174  0.19070  1.0000
  H   H8        1.0  0.06451  0.80930  0.98825  1.0000
  H   H9        1.0  0.43540  0.19889  0.84683  1.0000
  H   H10       1.0  0.06459  0.15317  0.80113  1.0000
  H   H11       1.0  0.56461  0.80113  0.15318  1.0000
  H   H12       1.0  0.93539  0.84682  0.19888  1.0000
  H   H13       1.0  0.66463  0.20109  0.50444  1.0000
  H   H14       1.0  0.83536  0.49557  0.79892  1.0000
  H   H15       1.0  0.33536  0.79893  0.49557  1.0000
  H   H16       1.0  0.16464  0.50443  0.20107  1.0000
  H   H17       1.0  0.85062  0.44212  0.56000  1.0000
  H   H18       1.0  0.64936  0.44001  0.55788  1.0000
  H   H19       1.0  0.14937  0.55787  0.44000  1.0000
  H   H20       1.0  0.35063  0.56000  0.44211  1.0000
  Pb  Pb1       1.0  0.79032  0.74892  0.59942  1.0000
  Pb  Pb2       1.0  0.70973  0.40052  0.25099  1.0000
  Pb  Pb3       1.0  0.20976  0.25102  0.40056  1.0000
  Pb  Pb4       1.0  0.29029  0.59944  0.74895  1.0000
  C   C1        1.0  0.46347  0.34244  0.69658  1.0000
  C   C2        1.0  0.03649  0.30340  0.65755  1.0000
  C   C3        1.0  0.53655  0.65756  0.30343  1.0000
  C   C4        1.0  0.96349  0.69659  0.34245  1.0000
  C   C5        1.0  0.70992  0.04209  0.56216  1.0000
  C   C6        1.0  0.79006  0.43784  0.95791  1.0000
  C   C7        1.0  0.29007  0.95791  0.43783  1.0000
  C   C8        1.0  0.20992  0.56217  0.04208  1.0000
  C   C9        1.0  0.58463  0.03910  0.74433  1.0000
  C   C10       1.0  0.91536  0.25568  0.96091  1.0000
  C   C11       1.0  0.41539  0.96091  0.25568  1.0000
  C   C12       1.0  0.08461  0.74432  0.03909  1.0000
  C   C13       1.0  0.51199  0.15569  0.76464  1.0000
  C   C14       1.0  0.98801  0.23537  0.84431  1.0000
  C   C15       1.0  0.48804  0.84432  0.23538  1.0000
  C   C16       1.0  0.01197  0.76463  0.15569  1.0000
  C   C17       1.0  0.63991  0.15771  0.57474  1.0000
  C   C18       1.0  0.86008  0.42527  0.84229  1.0000
  C   C19       1.0  0.36010  0.84231  0.42528  1.0000
  C   C20       1.0  0.13991  0.57473  0.15770  1.0000
  C   C21       1.0  0.53950  0.21636  0.67810  1.0000
  C   C22       1.0  0.96048  0.32190  0.78363  1.0000
  C   C23       1.0  0.46053  0.78365  0.32192  1.0000
  C   C24       1.0  0.03950  0.67810  0.21636  1.0000
  I   I1        1.0  0.63424  0.75689  0.87671  1.0000
  I   I2        1.0  0.86579  0.12330  0.24313  1.0000
  I   I3        1.0  0.36577  0.24312  0.12327  1.0000
  I   I4        1.0  0.13421  0.87675  0.75690  1.0000
  N   N1        1.0  0.68192  0.98304  0.64508  1.0000
  N   N2        1.0  0.81807  0.35492  0.01696  1.0000
  N   N3        1.0  0.31809  0.01696  0.35492  1.0000
  N   N4        1.0  0.18191  0.64508  0.98303  1.0000
  O   O1        1.0  0.39720  0.40344  0.80163  1.0000
  O   O2        1.0  0.10279  0.19836  0.59656  1.0000
  O   O3        1.0  0.60281  0.59656  0.19838  1.0000
  O   O4        1.0  0.89723  0.80164  0.40345  1.0000
  O   O5        1.0  0.46831  0.38251  0.60256  1.0000
  O   O6        1.0  0.03165  0.39742  0.61747  1.0000
  O   O7        1.0  0.53171  0.61751  0.39746  1.0000
  O   O8        1.0  0.96833  0.60256  0.38251  1.0000
  O   O9        1.0  0.75000  0.47314  0.52685  1.0000
  O   O10       1.0  0.25000  0.52685  0.47313  1.0000
