data_image0
_chemical_formula_structural       Ag4H50C30N6O8
_chemical_formula_sum              "Ag4 H50 C30 N6 O8"
_cell_length_a       7.18657
_cell_length_b       11.1539
_cell_length_c       11.4114
_cell_angle_alpha    77.4476
_cell_angle_beta     76.3321
_cell_angle_gamma    88.8668

_space_group_name_H-M_alt    "P 1"
_space_group_IT_number       1

loop_
  _space_group_symop_operation_xyz
  'x, y, z'

loop_
  _atom_site_type_symbol
  _atom_site_label
  _atom_site_symmetry_multiplicity
  _atom_site_fract_x
  _atom_site_fract_y
  _atom_site_fract_z
  _atom_site_occupancy
  Ag  Ag1       1.0  0.54452  0.72688  0.31563  1.0000
  Ag  Ag2       1.0  0.45549  0.27313  0.68437  1.0000
  Ag  Ag3       1.0  0.50000  0.50000  0.50000  1.0000
  Ag  Ag4       1.0  0.50000  0.50000  0.00000  1.0000
  H   H1        1.0  0.09574  0.87430  0.14236  1.0000
  H   H2        1.0  0.90426  0.12570  0.85764  1.0000
  H   H3        1.0  0.87341  0.94628  0.18259  1.0000
  H   H4        1.0  0.12660  0.05372  0.81742  1.0000
  H   H5        1.0  0.03147  0.90924  0.35774  1.0000
  H   H6        1.0  0.96853  0.09075  0.64226  1.0000
  H   H7        1.0  0.81287  0.82282  0.39690  1.0000
  H   H8        1.0  0.18713  0.17717  0.60310  1.0000
  H   H9        1.0  0.21793  0.72934  0.31804  1.0000
  H   H10       1.0  0.78207  0.27066  0.68196  1.0000
  H   H11       1.0  0.06361  0.68684  0.46674  1.0000
  H   H12       1.0  0.93639  0.31316  0.53326  1.0000
  H   H13       1.0  0.84067  0.57863  0.38885  1.0000
  H   H14       1.0  0.15934  0.42137  0.61115  1.0000
  H   H15       1.0  0.07584  0.52980  0.33337  1.0000
  H   H16       1.0  0.92416  0.47019  0.66663  1.0000
  H   H17       1.0  0.88230  0.57447  0.17134  1.0000
  H   H18       1.0  0.11769  0.42553  0.82866  1.0000
  H   H19       1.0  0.10070  0.66331  0.12835  1.0000
  H   H20       1.0  0.89929  0.33669  0.87165  1.0000
  H   H21       1.0  0.77351  0.70745  0.02871  1.0000
  H   H22       1.0  0.22648  0.29255  0.97129  1.0000
  H   H23       1.0  0.95487  0.82648  0.98427  1.0000
  H   H24       1.0  0.04513  0.17353  0.01573  1.0000
  H   H25       1.0  0.66144  0.91311  0.93672  1.0000
  H   H26       1.0  0.33856  0.08689  0.06328  1.0000
  H   H27       1.0  0.69498  0.97160  0.06218  1.0000
  H   H28       1.0  0.30502  0.02840  0.93783  1.0000
  H   H29       1.0  0.08007  0.86906  0.79197  1.0000
  H   H30       1.0  0.91992  0.13094  0.20803  1.0000
  H   H31       1.0  0.10440  0.86629  0.63444  1.0000
  H   H32       1.0  0.89559  0.13371  0.36556  1.0000
  H   H33       1.0  0.85825  0.70652  0.77209  1.0000
  H   H34       1.0  0.14175  0.29348  0.22791  1.0000
  H   H35       1.0  0.03123  0.63794  0.85079  1.0000
  H   H36       1.0  0.96877  0.36206  0.14921  1.0000
  H   H37       1.0  0.05565  0.63499  0.69300  1.0000
  H   H38       1.0  0.94435  0.36501  0.30700  1.0000
  H   H39       1.0  0.40581  0.97984  0.58956  1.0000
  H   H40       1.0  0.59419  0.02016  0.41045  1.0000
  H   H41       1.0  0.38781  0.97406  0.74797  1.0000
  H   H42       1.0  0.61219  0.02594  0.25204  1.0000
  H   H43       1.0  0.72464  0.01859  0.61786  1.0000
  H   H44       1.0  0.27536  0.98141  0.38214  1.0000
  H   H45       1.0  0.72734  0.87136  0.58234  1.0000
  H   H46       1.0  0.27266  0.12864  0.41766  1.0000
  H   H47       1.0  0.70630  0.88411  0.73740  1.0000
  H   H48       1.0  0.29370  0.11589  0.26260  1.0000
  H   H49       1.0  0.42293  0.79542  0.05911  1.0000
  H   H50       1.0  0.57707  0.20458  0.94089  1.0000
  C   C1        1.0  0.94970  0.86118  0.20381  1.0000
  C   C2        1.0  0.05030  0.13883  0.79620  1.0000
  C   C3        1.0  0.96041  0.83193  0.33854  1.0000
  C   C4        1.0  0.03960  0.16807  0.66146  1.0000
  C   C5        1.0  0.06570  0.71317  0.36786  1.0000
  C   C6        1.0  0.93430  0.28683  0.63213  1.0000
  C   C7        1.0  0.98255  0.60893  0.32657  1.0000
  C   C8        1.0  0.01745  0.39107  0.67342  1.0000
  C   C9        1.0  0.95867  0.64719  0.19446  1.0000
  C   C10       1.0  0.04133  0.35281  0.80553  1.0000
  C   C11       1.0  0.81773  0.79239  0.05055  1.0000
  C   C12       1.0  0.18226  0.20762  0.94945  1.0000
  C   C13       1.0  0.66415  0.88674  0.03503  1.0000
  C   C14       1.0  0.33585  0.11327  0.96497  1.0000
  C   C15       1.0  0.49072  0.55816  0.74171  1.0000
  C   C16       1.0  0.50928  0.44184  0.25829  1.0000
  C   C17       1.0  0.41517  0.73264  0.60146  1.0000
  C   C18       1.0  0.58482  0.26736  0.39854  1.0000
  C   C19       1.0  0.34652  0.79916  0.70673  1.0000
  C   C20       1.0  0.65348  0.20084  0.29327  1.0000
  C   C21       1.0  0.38257  0.72966  0.83047  1.0000
  C   C22       1.0  0.61743  0.27034  0.16953  1.0000
  C   C23       1.0  0.12681  0.81308  0.72280  1.0000
  C   C24       1.0  0.87318  0.18692  0.27720  1.0000
  C   C25       1.0  0.01210  0.69168  0.76177  1.0000
  C   C26       1.0  0.98790  0.30832  0.23823  1.0000
  C   C27       1.0  0.44622  0.92746  0.67238  1.0000
  C   C28       1.0  0.55378  0.07254  0.32762  1.0000
  C   C29       1.0  0.66339  0.92473  0.65143  1.0000
  C   C30       1.0  0.33661  0.07527  0.34857  1.0000
  N   N1        1.0  0.84685  0.76020  0.17729  1.0000
  N   N2        1.0  0.15315  0.23980  0.82271  1.0000
  N   N3        1.0  0.47089  0.61571  0.62532  1.0000
  N   N4        1.0  0.52911  0.38429  0.37468  1.0000
  N   N5        1.0  0.45391  0.61567  0.83973  1.0000
  N   N6        1.0  0.54609  0.38433  0.16027  1.0000
  O   O1        1.0  0.54602  0.44969  0.75951  1.0000
  O   O2        1.0  0.45399  0.55031  0.24049  1.0000
  O   O3        1.0  0.41029  0.78895  0.49389  1.0000
  O   O4        1.0  0.58970  0.21105  0.50611  1.0000
  O   O5        1.0  0.34221  0.77999  0.92083  1.0000
  O   O6        1.0  0.65778  0.22001  0.07918  1.0000
  O   O7        1.0  0.47821  0.84167  0.10833  1.0000
  O   O8        1.0  0.52179  0.15833  0.89167  1.0000
