data_image0
_chemical_formula_structural       Cu2H20C26N12Cl4
_chemical_formula_sum              "Cu2 H20 C26 N12 Cl4"
_cell_length_a       8.49767
_cell_length_b       9.25078
_cell_length_c       10.3495
_cell_angle_alpha    88.652
_cell_angle_beta     72.8394
_cell_angle_gamma    65.529

_space_group_name_H-M_alt    "P 1"
_space_group_IT_number       1

loop_
  _space_group_symop_operation_xyz
  'x, y, z'

loop_
  _atom_site_type_symbol
  _atom_site_label
  _atom_site_symmetry_multiplicity
  _atom_site_fract_x
  _atom_site_fract_y
  _atom_site_fract_z
  _atom_site_occupancy
  Cu  Cu1       1.0  0.28109  0.34079  0.30500  1.0000
  Cu  Cu2       1.0  0.71890  0.65921  0.69500  1.0000
  H   H1        1.0  0.03739  0.25816  0.59287  1.0000
  H   H2        1.0  0.96261  0.74184  0.40713  1.0000
  H   H3        1.0  0.94275  0.07495  0.74866  1.0000
  H   H4        1.0  0.05725  0.92505  0.25134  1.0000
  H   H5        1.0  0.11143  0.78263  0.69926  1.0000
  H   H6        1.0  0.88857  0.21737  0.30074  1.0000
  H   H7        1.0  0.38841  0.65553  0.49983  1.0000
  H   H8        1.0  0.61159  0.34447  0.50017  1.0000
  H   H9        1.0  0.69921  0.62654  0.28012  1.0000
  H   H10       1.0  0.30079  0.37346  0.71988  1.0000
  H   H11       1.0  0.70213  0.73963  0.13362  1.0000
  H   H12       1.0  0.29787  0.26037  0.86638  1.0000
  H   H13       1.0  0.08417  0.57404  0.07835  1.0000
  H   H14       1.0  0.91583  0.42596  0.92165  1.0000
  H   H15       1.0  0.03500  0.79309  0.92834  1.0000
  H   H16       1.0  0.96499  0.20692  0.07166  1.0000
  H   H17       1.0  0.21318  0.95374  0.89479  1.0000
  H   H18       1.0  0.78681  0.04626  0.10521  1.0000
  H   H19       1.0  0.44073  0.90773  0.01469  1.0000
  H   H20       1.0  0.55927  0.09227  0.98531  1.0000
  C   C1        1.0  0.26875  0.05638  0.46104  1.0000
  C   C2        1.0  0.73125  0.94362  0.53896  1.0000
  C   C3        1.0  0.11363  0.12875  0.57529  1.0000
  C   C4        1.0  0.88637  0.87125  0.42471  1.0000
  C   C5        1.0  0.06314  0.02592  0.65935  1.0000
  C   C6        1.0  0.93686  0.97408  0.34065  1.0000
  C   C7        1.0  0.16118  0.85764  0.63233  1.0000
  C   C8        1.0  0.83882  0.14236  0.36768  1.0000
  C   C9        1.0  0.31545  0.78478  0.52062  1.0000
  C   C10       1.0  0.68455  0.21521  0.47938  1.0000
  C   C11       1.0  0.36611  0.88828  0.43543  1.0000
  C   C12       1.0  0.63389  0.11172  0.56457  1.0000
  C   C13       1.0  0.61717  0.71408  0.22533  1.0000
  C   C14       1.0  0.38283  0.28591  0.77467  1.0000
  C   C15       1.0  0.29246  0.61729  0.12904  1.0000
  C   C16       1.0  0.70754  0.38271  0.87096  1.0000
  C   C17       1.0  0.16012  0.64641  0.06428  1.0000
  C   C18       1.0  0.83988  0.35359  0.93572  1.0000
  C   C19       1.0  0.13520  0.76863  0.98134  1.0000
  C   C20       1.0  0.86480  0.23137  0.01866  1.0000
  C   C21       1.0  0.23576  0.86111  0.96302  1.0000
  C   C22       1.0  0.76424  0.13889  0.03698  1.0000
  C   C23       1.0  0.36416  0.83619  0.02841  1.0000
  C   C24       1.0  0.63584  0.16381  0.97158  1.0000
  C   C25       1.0  0.39096  0.71149  0.11070  1.0000
  C   C26       1.0  0.60904  0.28852  0.88930  1.0000
  N   N1        1.0  0.49997  0.86331  0.31325  1.0000
  N   N2        1.0  0.50003  0.13669  0.68675  1.0000
  N   N3        1.0  0.48691  0.00306  0.26454  1.0000
  N   N4        1.0  0.51309  0.99693  0.73546  1.0000
  N   N5        1.0  0.35164  0.11839  0.35328  1.0000
  N   N6        1.0  0.64836  0.88161  0.64672  1.0000
  N   N7        1.0  0.50527  0.64945  0.18808  1.0000
  N   N8        1.0  0.49474  0.35055  0.81191  1.0000
  N   N9        1.0  0.47980  0.52846  0.25167  1.0000
  N   N10       1.0  0.52020  0.47155  0.74833  1.0000
  N   N11       1.0  0.35436  0.50740  0.21637  1.0000
  N   N12       1.0  0.64564  0.49260  0.78364  1.0000
  Cl  Cl1       1.0  0.17918  0.28667  0.14134  1.0000
  Cl  Cl2       1.0  0.82081  0.71333  0.85866  1.0000
  Cl  Cl3       1.0  0.22034  0.45244  0.51450  1.0000
  Cl  Cl4       1.0  0.77965  0.54756  0.48550  1.0000
