data_image0
_chemical_formula_structural       Ag2H26C30N16O6
_chemical_formula_sum              "Ag2 H26 C30 N16 O6"
_cell_length_a       9.1482
_cell_length_b       9.31384
_cell_length_c       11.828
_cell_angle_alpha    92.2557
_cell_angle_beta     105.496
_cell_angle_gamma    115.904

_space_group_name_H-M_alt    "P 1"
_space_group_IT_number       1

loop_
  _space_group_symop_operation_xyz
  'x, y, z'

loop_
  _atom_site_type_symbol
  _atom_site_label
  _atom_site_symmetry_multiplicity
  _atom_site_fract_x
  _atom_site_fract_y
  _atom_site_fract_z
  _atom_site_occupancy
  Ag  Ag1       1.0  0.37297  0.59104  0.33101  1.0000
  Ag  Ag2       1.0  0.62703  0.40896  0.66899  1.0000
  H   H1        1.0  0.24258  0.41498  0.55264  1.0000
  H   H2        1.0  0.75742  0.58502  0.44736  1.0000
  H   H3        1.0  0.04514  0.27206  0.66939  1.0000
  H   H4        1.0  0.95486  0.72794  0.33061  1.0000
  H   H5        1.0  0.73194  0.13695  0.57594  1.0000
  H   H6        1.0  0.26806  0.86305  0.42405  1.0000
  H   H7        1.0  0.59780  0.12890  0.36129  1.0000
  H   H8        1.0  0.40220  0.87110  0.63870  1.0000
  H   H9        1.0  0.69074  0.26571  0.04529  1.0000
  H   H10       1.0  0.30926  0.73429  0.95471  1.0000
  H   H11       1.0  0.55972  0.15993  0.13600  1.0000
  H   H12       1.0  0.44028  0.84007  0.86400  1.0000
  H   H13       1.0  0.62262  0.86806  0.20182  1.0000
  H   H14       1.0  0.37738  0.13194  0.79818  1.0000
  H   H15       1.0  0.82473  0.00061  0.08633  1.0000
  H   H16       1.0  0.17526  0.99939  0.91366  1.0000
  H   H17       1.0  0.95438  0.85400  0.00419  1.0000
  H   H18       1.0  0.04562  0.14600  0.99581  1.0000
  H   H19       1.0  0.87806  0.56756  0.02229  1.0000
  H   H20       1.0  0.12195  0.43244  0.97771  1.0000
  H   H21       1.0  0.81431  0.78973  0.76396  1.0000
  H   H22       1.0  0.18569  0.21027  0.23604  1.0000
  H   H23       1.0  0.74939  0.94447  0.76446  1.0000
  H   H24       1.0  0.25061  0.05553  0.23554  1.0000
  H   H25       1.0  0.91116  0.96273  0.69796  1.0000
  H   H26       1.0  0.08883  0.03727  0.30204  1.0000
  C   C1        1.0  0.02771  0.35306  0.39225  1.0000
  C   C2        1.0  0.97229  0.64694  0.60775  1.0000
  C   C3        1.0  0.10385  0.35394  0.51230  1.0000
  C   C4        1.0  0.89615  0.64606  0.48770  1.0000
  C   C5        1.0  0.99307  0.27393  0.57539  1.0000
  C   C6        1.0  0.00693  0.72607  0.42461  1.0000
  C   C7        1.0  0.81289  0.19503  0.52154  1.0000
  C   C8        1.0  0.18711  0.80497  0.47846  1.0000
  C   C9        1.0  0.73617  0.19236  0.40254  1.0000
  C   C10       1.0  0.26383  0.80764  0.59746  1.0000
  C   C11       1.0  0.84797  0.27369  0.33929  1.0000
  C   C12       1.0  0.15203  0.72631  0.66071  1.0000
  C   C13       1.0  0.66849  0.27210  0.13172  1.0000
  C   C14       1.0  0.33151  0.72791  0.86828  1.0000
  C   C15       1.0  0.63047  0.64057  0.16967  1.0000
  C   C16       1.0  0.36953  0.35943  0.83033  1.0000
  C   C17       1.0  0.67505  0.80323  0.16062  1.0000
  C   C18       1.0  0.32495  0.19677  0.83938  1.0000
  C   C19       1.0  0.79008  0.87596  0.09893  1.0000
  C   C20       1.0  0.20992  0.12404  0.90107  1.0000
  C   C21       1.0  0.86168  0.79112  0.04977  1.0000
  C   C22       1.0  0.13832  0.20888  0.95023  1.0000
  C   C23       1.0  0.82063  0.63078  0.05903  1.0000
  C   C24       1.0  0.17937  0.36922  0.94097  1.0000
  C   C25       1.0  0.70144  0.55685  0.11925  1.0000
  C   C26       1.0  0.29856  0.44315  0.88075  1.0000
  C   C27       1.0  0.66087  0.79348  0.60013  1.0000
  C   C28       1.0  0.33913  0.20652  0.39987  1.0000
  C   C29       1.0  0.79191  0.87811  0.71294  1.0000
  C   C30       1.0  0.20809  0.12189  0.28706  1.0000
  N   N1        1.0  0.82436  0.30012  0.22370  1.0000
  N   N2        1.0  0.17564  0.69988  0.77630  1.0000
  N   N3        1.0  0.97724  0.39099  0.20633  1.0000
  N   N4        1.0  0.02276  0.60901  0.79367  1.0000
  N   N5        1.0  0.09880  0.42211  0.30629  1.0000
  N   N6        1.0  0.90120  0.57790  0.69371  1.0000
  N   N7        1.0  0.62914  0.40507  0.14777  1.0000
  N   N8        1.0  0.37086  0.59493  0.85223  1.0000
  N   N9        1.0  0.52389  0.39580  0.21222  1.0000
  N   N10       1.0  0.47611  0.60420  0.78778  1.0000
  N   N11       1.0  0.52305  0.53531  0.22497  1.0000
  N   N12       1.0  0.47695  0.46469  0.77503  1.0000
  N   N13       1.0  0.31509  0.82867  0.16357  1.0000
  N   N14       1.0  0.68491  0.17133  0.83643  1.0000
  N   N15       1.0  0.55547  0.72632  0.50877  1.0000
  N   N16       1.0  0.44453  0.27368  0.49123  1.0000
  O   O1        1.0  0.25227  0.68362  0.11233  1.0000
  O   O2        1.0  0.74773  0.31638  0.88767  1.0000
  O   O3        1.0  0.38348  0.86616  0.27679  1.0000
  O   O4        1.0  0.61652  0.13384  0.72322  1.0000
  O   O5        1.0  0.31354  0.93840  0.10344  1.0000
  O   O6        1.0  0.68646  0.06160  0.89656  1.0000
