data_image0
_chemical_formula_structural       Zn4H32C32N24O8
_chemical_formula_sum              "Zn4 H32 C32 N24 O8"
_cell_length_a       9.35888
_cell_length_b       9.91149
_cell_length_c       12.6726
_cell_angle_alpha    76.2389
_cell_angle_beta     68.365
_cell_angle_gamma    86.1021

_space_group_name_H-M_alt    "P 1"
_space_group_IT_number       1

loop_
  _space_group_symop_operation_xyz
  'x, y, z'

loop_
  _atom_site_type_symbol
  _atom_site_label
  _atom_site_symmetry_multiplicity
  _atom_site_fract_x
  _atom_site_fract_y
  _atom_site_fract_z
  _atom_site_occupancy
  Zn  Zn1       1.0  0.46419  0.91467  0.90181  1.0000
  Zn  Zn2       1.0  0.53581  0.08534  0.09820  1.0000
  Zn  Zn3       1.0  0.88362  0.56230  0.12410  1.0000
  Zn  Zn4       1.0  0.11638  0.43770  0.87590  1.0000
  H   H1        1.0  0.92083  0.27554  0.78690  1.0000
  H   H2        1.0  0.07918  0.72446  0.21309  1.0000
  H   H3        1.0  0.75987  0.16491  0.85755  1.0000
  H   H4        1.0  0.24013  0.83508  0.14245  1.0000
  H   H5        1.0  0.77255  0.00609  0.30503  1.0000
  H   H6        1.0  0.22744  0.99391  0.69497  1.0000
  H   H7        1.0  0.57406  0.62044  0.92070  1.0000
  H   H8        1.0  0.42594  0.37956  0.07930  1.0000
  H   H9        1.0  0.73160  0.54151  0.94488  1.0000
  H   H10       1.0  0.26840  0.45849  0.05512  1.0000
  H   H11       1.0  0.61824  0.93638  0.51760  1.0000
  H   H12       1.0  0.38176  0.06362  0.48240  1.0000
  H   H13       1.0  0.00252  0.16638  0.23641  1.0000
  H   H14       1.0  0.99747  0.83362  0.76359  1.0000
  H   H15       1.0  0.65425  0.34731  0.29561  1.0000
  H   H16       1.0  0.34576  0.65270  0.70439  1.0000
  H   H17       1.0  0.54610  0.21465  0.28432  1.0000
  H   H18       1.0  0.45391  0.78536  0.71567  1.0000
  H   H19       1.0  0.92450  0.18933  0.57600  1.0000
  H   H20       1.0  0.07550  0.81067  0.42400  1.0000
  H   H21       1.0  0.57330  0.39143  0.81839  1.0000
  H   H22       1.0  0.42670  0.60858  0.18161  1.0000
  H   H23       1.0  0.59677  0.36575  0.49160  1.0000
  H   H24       1.0  0.40323  0.63424  0.50841  1.0000
  H   H25       1.0  0.77968  0.57929  0.73204  1.0000
  H   H26       1.0  0.22032  0.42071  0.26796  1.0000
  H   H27       1.0  0.88786  0.66607  0.51701  1.0000
  H   H28       1.0  0.11213  0.33393  0.48299  1.0000
  H   H29       1.0  0.82839  0.99963  0.13221  1.0000
  H   H30       1.0  0.17161  0.00037  0.86779  1.0000
  H   H31       1.0  0.86684  0.83184  0.19387  1.0000
  H   H32       1.0  0.13316  0.16816  0.80613  1.0000
  C   C1        1.0  0.66709  0.71773  0.00491  1.0000
  C   C2        1.0  0.33290  0.28227  0.99509  1.0000
  C   C3        1.0  0.76055  0.05852  0.56271  1.0000
  C   C4        1.0  0.23945  0.94148  0.43730  1.0000
  C   C5        1.0  0.80461  0.04524  0.36660  1.0000
  C   C6        1.0  0.19538  0.95476  0.63340  1.0000
  C   C7        1.0  0.80697  0.28403  0.95602  1.0000
  C   C8        1.0  0.19304  0.71596  0.04397  1.0000
  C   C9        1.0  0.67500  0.02117  0.69139  1.0000
  C   C10       1.0  0.32501  0.97882  0.30861  1.0000
  C   C11       1.0  0.71764  0.00644  0.48522  1.0000
  C   C12       1.0  0.28236  0.99357  0.51478  1.0000
  C   C13       1.0  0.71655  0.30803  0.13486  1.0000
  C   C14       1.0  0.28346  0.69197  0.86514  1.0000
  C   C15       1.0  0.75461  0.84976  0.08072  1.0000
  C   C16       1.0  0.24539  0.15024  0.91929  1.0000
  C   C17       1.0  0.93155  0.13472  0.32912  1.0000
  C   C18       1.0  0.06844  0.86529  0.67088  1.0000
  C   C19       1.0  0.88946  0.14826  0.51623  1.0000
  C   C20       1.0  0.11054  0.85174  0.48377  1.0000
  C   C21       1.0  0.75081  0.52204  0.48705  1.0000
  C   C22       1.0  0.24918  0.47796  0.51295  1.0000
  C   C23       1.0  0.81473  0.57291  0.35768  1.0000
  C   C24       1.0  0.18527  0.42709  0.64232  1.0000
  C   C25       1.0  0.62592  0.42979  0.72411  1.0000
  C   C26       1.0  0.37409  0.57021  0.27589  1.0000
  C   C27       1.0  0.63846  0.41558  0.54321  1.0000
  C   C28       1.0  0.36153  0.58441  0.45679  1.0000
  C   C29       1.0  0.73971  0.53444  0.67689  1.0000
  C   C30       1.0  0.26030  0.46556  0.32311  1.0000
  C   C31       1.0  0.80144  0.58276  0.55660  1.0000
  C   C32       1.0  0.19856  0.41723  0.44340  1.0000
  N   N1        1.0  0.89403  0.38433  0.96062  1.0000
  N   N2        1.0  0.10598  0.61567  0.03937  1.0000
  N   N3        1.0  0.64957  0.92272  0.04440  1.0000
  N   N4        1.0  0.35043  0.07728  0.95560  1.0000
  N   N5        1.0  0.59449  0.83764  0.99368  1.0000
  N   N6        1.0  0.40550  0.16237  0.00632  1.0000
  N   N7        1.0  0.83770  0.39533  0.07861  1.0000
  N   N8        1.0  0.16230  0.60467  0.92138  1.0000
  N   N9        1.0  0.69491  0.23448  0.06274  1.0000
  N   N10       1.0  0.30509  0.76552  0.93725  1.0000
  N   N11       1.0  0.82487  0.24196  0.85959  1.0000
  N   N12       1.0  0.17513  0.75804  0.14040  1.0000
  N   N13       1.0  0.76779  0.71960  0.05975  1.0000
  N   N14       1.0  0.23221  0.28040  0.94026  1.0000
  N   N15       1.0  0.64070  0.60493  0.96993  1.0000
  N   N16       1.0  0.35930  0.39507  0.03008  1.0000
  N   N17       1.0  0.62119  0.29768  0.24620  1.0000
  N   N18       1.0  0.37882  0.70232  0.75379  1.0000
  N   N19       1.0  0.97417  0.18655  0.40222  1.0000
  N   N20       1.0  0.02583  0.81345  0.59778  1.0000
  N   N21       1.0  0.57448  0.37083  0.65931  1.0000
  N   N22       1.0  0.42552  0.62918  0.34069  1.0000
  N   N23       1.0  0.84476  0.89911  0.12651  1.0000
  N   N24       1.0  0.15524  0.10089  0.87350  1.0000
  O   O1        1.0  0.55194  0.94223  0.72829  1.0000
  O   O2        1.0  0.44806  0.05777  0.27171  1.0000
  O   O3        1.0  0.72089  0.06392  0.75877  1.0000
  O   O4        1.0  0.27913  0.93607  0.24123  1.0000
  O   O5        1.0  0.79297  0.49472  0.29622  1.0000
  O   O6        1.0  0.20704  0.50527  0.70378  1.0000
  O   O7        1.0  0.88663  0.68814  0.31417  1.0000
  O   O8        1.0  0.11337  0.31185  0.68583  1.0000
