data_image0
_chemical_formula_structural       Ho4P2H26C22N2O32
_chemical_formula_sum              "Ho4 P2 H26 C22 N2 O32"
_cell_length_a       9.824
_cell_length_b       10.3068
_cell_length_c       11.1613
_cell_angle_alpha    96.6497
_cell_angle_beta     90.9691
_cell_angle_gamma    107.624

_space_group_name_H-M_alt    "P 1"
_space_group_IT_number       1

loop_
  _space_group_symop_operation_xyz
  'x, y, z'

loop_
  _atom_site_type_symbol
  _atom_site_label
  _atom_site_symmetry_multiplicity
  _atom_site_fract_x
  _atom_site_fract_y
  _atom_site_fract_z
  _atom_site_occupancy
  Ho  Ho1       1.0  0.17344  0.37936  0.04978  1.0000
  Ho  Ho2       1.0  0.82656  0.62063  0.95022  1.0000
  Ho  Ho3       1.0  0.37528  0.93678  0.24405  1.0000
  Ho  Ho4       1.0  0.62472  0.06322  0.75595  1.0000
  P   P1        1.0  0.06140  0.63500  0.21177  1.0000
  P   P2        1.0  0.93860  0.36500  0.78822  1.0000
  H   H1        1.0  0.60294  0.79794  0.26130  1.0000
  H   H2        1.0  0.39706  0.20206  0.73870  1.0000
  H   H3        1.0  0.46006  0.68171  0.23088  1.0000
  H   H4        1.0  0.53994  0.31829  0.76912  1.0000
  H   H5        1.0  0.97615  0.76451  0.36411  1.0000
  H   H6        1.0  0.02386  0.23549  0.63588  1.0000
  H   H7        1.0  0.07324  0.67162  0.43025  1.0000
  H   H8        1.0  0.92677  0.32839  0.56975  1.0000
  H   H9        1.0  0.78351  0.49390  0.20887  1.0000
  H   H10       1.0  0.21649  0.50610  0.79113  1.0000
  H   H11       1.0  0.88633  0.60525  0.58223  1.0000
  H   H12       1.0  0.11368  0.39476  0.41777  1.0000
  H   H13       1.0  0.90790  0.20165  0.16284  1.0000
  H   H14       1.0  0.09210  0.79835  0.83716  1.0000
  H   H15       1.0  0.87795  0.14759  0.02170  1.0000
  H   H16       1.0  0.12204  0.85240  0.97830  1.0000
  H   H17       1.0  0.31264  0.67924  0.00062  1.0000
  H   H18       1.0  0.68736  0.32075  0.99938  1.0000
  H   H19       1.0  0.15932  0.64431  0.94228  1.0000
  H   H20       1.0  0.84069  0.35569  0.05772  1.0000
  H   H21       1.0  0.56984  0.33402  0.23583  1.0000
  H   H22       1.0  0.43016  0.66598  0.76418  1.0000
  H   H23       1.0  0.65475  0.44304  0.62219  1.0000
  H   H24       1.0  0.34526  0.55698  0.37781  1.0000
  H   H25       1.0  0.48784  0.30190  0.44574  1.0000
  H   H26       1.0  0.51216  0.69810  0.55426  1.0000
  C   C1        1.0  0.20533  0.09093  0.09293  1.0000
  C   C2        1.0  0.79467  0.90906  0.90707  1.0000
  C   C3        1.0  0.24525  0.17788  0.21903  1.0000
  C   C4        1.0  0.75474  0.82212  0.78097  1.0000
  C   C5        1.0  0.42614  0.95910  0.52230  1.0000
  C   C6        1.0  0.57386  0.04090  0.47771  1.0000
  C   C7        1.0  0.52408  0.07776  0.02371  1.0000
  C   C8        1.0  0.47593  0.92224  0.97628  1.0000
  C   C9        1.0  0.98996  0.66180  0.35988  1.0000
  C   C10       1.0  0.01004  0.33820  0.64012  1.0000
  C   C11       1.0  0.85300  0.56180  0.38864  1.0000
  C   C12       1.0  0.14700  0.43820  0.61136  1.0000
  C   C13       1.0  0.81448  0.54488  0.50690  1.0000
  C   C14       1.0  0.18552  0.45512  0.49310  1.0000
  C   C15       1.0  0.63201  0.39341  0.31642  1.0000
  C   C16       1.0  0.36799  0.60660  0.68358  1.0000
  C   C17       1.0  0.68327  0.45336  0.52919  1.0000
  C   C18       1.0  0.31673  0.54665  0.47082  1.0000
  C   C19       1.0  0.48507  0.45580  0.93744  1.0000
  C   C20       1.0  0.51492  0.54419  0.06255  1.0000
  C   C21       1.0  0.59047  0.37595  0.43274  1.0000
  C   C22       1.0  0.40953  0.62406  0.56726  1.0000
  N   N1        1.0  0.75895  0.48473  0.29808  1.0000
  N   N2        1.0  0.24104  0.51528  0.70192  1.0000
  O   O1        1.0  0.17209  0.14770  0.00790  1.0000
  O   O2        1.0  0.82792  0.85229  0.99210  1.0000
  O   O3        1.0  0.22669  0.29482  0.22791  1.0000
  O   O4        1.0  0.77330  0.70517  0.77210  1.0000
  O   O5        1.0  0.21192  0.96875  0.08651  1.0000
  O   O6        1.0  0.78807  0.03124  0.91349  1.0000
  O   O7        1.0  0.29371  0.12612  0.30120  1.0000
  O   O8        1.0  0.70628  0.87386  0.69880  1.0000
  O   O9        1.0  0.20653  0.74351  0.21928  1.0000
  O   O10       1.0  0.79347  0.25648  0.78072  1.0000
  O   O11       1.0  0.32391  0.91005  0.44364  1.0000
  O   O12       1.0  0.67609  0.08995  0.55636  1.0000
  O   O13       1.0  0.50311  0.77163  0.28205  1.0000
  O   O14       1.0  0.49689  0.22837  0.71795  1.0000
  O   O15       1.0  0.57951  0.05277  0.36602  1.0000
  O   O16       1.0  0.42050  0.94723  0.63399  1.0000
  O   O17       1.0  0.51609  0.11140  0.13484  1.0000
  O   O18       1.0  0.48391  0.88861  0.86516  1.0000
  O   O19       1.0  0.43226  0.84052  0.05422  1.0000
  O   O20       1.0  0.56775  0.15949  0.94578  1.0000
  O   O21       1.0  0.07330  0.48914  0.19015  1.0000
  O   O22       1.0  0.92669  0.51086  0.80985  1.0000
  O   O23       1.0  0.95308  0.65567  0.12129  1.0000
  O   O24       1.0  0.04692  0.34434  0.87871  1.0000
  O   O25       1.0  0.35957  0.37754  0.91143  1.0000
  O   O26       1.0  0.64042  0.62245  0.08856  1.0000
  O   O27       1.0  0.92739  0.22978  0.08307  1.0000
  O   O28       1.0  0.07261  0.77022  0.91693  1.0000
  O   O29       1.0  0.40863  0.53043  0.12933  1.0000
  O   O30       1.0  0.59136  0.46957  0.87066  1.0000
  O   O31       1.0  0.23223  0.59985  0.96195  1.0000
  O   O32       1.0  0.76777  0.40015  0.03805  1.0000
