data_image0
_chemical_formula_structural       Cu2H26C36N4O12
_chemical_formula_sum              "Cu2 H26 C36 N4 O12"
_cell_length_a       8.72542
_cell_length_b       9.75607
_cell_length_c       10.3252
_cell_angle_alpha    91.0143
_cell_angle_beta     106.305
_cell_angle_gamma    108.958

_space_group_name_H-M_alt    "P 1"
_space_group_IT_number       1

loop_
  _space_group_symop_operation_xyz
  'x, y, z'

loop_
  _atom_site_type_symbol
  _atom_site_label
  _atom_site_symmetry_multiplicity
  _atom_site_fract_x
  _atom_site_fract_y
  _atom_site_fract_z
  _atom_site_occupancy
  Cu  Cu1       1.0  0.84880  0.60104  0.86527  1.0000
  Cu  Cu2       1.0  0.15120  0.39896  0.13473  1.0000
  H   H1        1.0  0.65136  0.35213  0.80371  1.0000
  H   H2        1.0  0.34863  0.64786  0.19629  1.0000
  H   H3        1.0  0.54234  0.42358  0.87706  1.0000
  H   H4        1.0  0.45767  0.57642  0.12294  1.0000
  H   H5        1.0  0.65658  0.77281  0.29510  1.0000
  H   H6        1.0  0.34342  0.22719  0.70490  1.0000
  H   H7        1.0  0.78544  0.86116  0.54421  1.0000
  H   H8        1.0  0.21456  0.13884  0.45578  1.0000
  H   H9        1.0  0.07066  0.85354  0.66533  1.0000
  H   H10       1.0  0.92935  0.14646  0.33467  1.0000
  H   H11       1.0  0.36568  0.99116  0.59568  1.0000
  H   H12       1.0  0.63432  0.00884  0.40432  1.0000
  H   H13       1.0  0.65695  0.00405  0.72324  1.0000
  H   H14       1.0  0.34305  0.99595  0.27676  1.0000
  H   H15       1.0  0.47850  0.52872  0.65177  1.0000
  H   H16       1.0  0.52150  0.47128  0.34823  1.0000
  H   H17       1.0  0.19293  0.53661  0.52490  1.0000
  H   H18       1.0  0.80707  0.46339  0.47510  1.0000
  H   H19       1.0  0.99698  0.91679  0.92343  1.0000
  H   H20       1.0  0.00302  0.08321  0.07657  1.0000
  H   H21       1.0  0.28755  0.10359  0.00014  1.0000
  H   H22       1.0  0.71245  0.89641  0.99985  1.0000
  H   H23       1.0  0.47882  0.75584  0.94138  1.0000
  H   H24       1.0  0.52118  0.24416  0.05863  1.0000
  H   H25       1.0  0.18120  0.58775  0.86906  1.0000
  H   H26       1.0  0.81880  0.41225  0.13095  1.0000
  C   C1        1.0  0.78873  0.67052  0.12705  1.0000
  C   C2        1.0  0.21127  0.32948  0.87295  1.0000
  C   C3        1.0  0.13705  0.66017  0.27718  1.0000
  C   C4        1.0  0.86295  0.33983  0.72281  1.0000
  C   C5        1.0  0.86969  0.71841  0.27792  1.0000
  C   C6        1.0  0.13031  0.28159  0.72208  1.0000
  C   C7        1.0  0.78224  0.77121  0.35005  1.0000
  C   C8        1.0  0.21776  0.22880  0.64995  1.0000
  C   C9        1.0  0.85368  0.82075  0.48819  1.0000
  C   C10       1.0  0.14633  0.17926  0.51181  1.0000
  C   C11       1.0  0.01421  0.81725  0.55695  1.0000
  C   C12       1.0  0.98579  0.18275  0.44305  1.0000
  C   C13       1.0  0.10223  0.76521  0.48582  1.0000
  C   C14       1.0  0.89777  0.23479  0.51417  1.0000
  C   C15       1.0  0.03340  0.71639  0.34615  1.0000
  C   C16       1.0  0.96660  0.28361  0.65385  1.0000
  C   C17       1.0  0.59716  0.76553  0.70350  1.0000
  C   C18       1.0  0.40283  0.23447  0.29650  1.0000
  C   C19       1.0  0.39873  0.89322  0.61280  1.0000
  C   C20       1.0  0.60127  0.10678  0.38720  1.0000
  C   C21       1.0  0.55877  0.89787  0.68241  1.0000
  C   C22       1.0  0.44123  0.10213  0.31759  1.0000
  C   C23       1.0  0.45827  0.63271  0.64047  1.0000
  C   C24       1.0  0.54173  0.36729  0.35953  1.0000
  C   C25       1.0  0.30078  0.63516  0.57193  1.0000
  C   C26       1.0  0.69921  0.36484  0.42807  1.0000
  C   C27       1.0  0.10946  0.88799  0.93128  1.0000
  C   C28       1.0  0.89055  0.11201  0.06872  1.0000
  C   C29       1.0  0.27213  0.99084  0.97204  1.0000
  C   C30       1.0  0.72788  0.00916  0.02797  1.0000
  C   C31       1.0  0.41225  0.94746  0.97741  1.0000
  C   C32       1.0  0.58775  0.05254  0.02260  1.0000
  C   C33       1.0  0.37827  0.79964  0.93840  1.0000
  C   C34       1.0  0.62173  0.20036  0.06161  1.0000
  C   C35       1.0  0.21214  0.70313  0.89895  1.0000
  C   C36       1.0  0.78786  0.29687  0.10105  1.0000
  N   N1        1.0  0.26908  0.76391  0.55831  1.0000
  N   N2        1.0  0.73092  0.23610  0.44169  1.0000
  N   N3        1.0  0.07990  0.74628  0.89551  1.0000
  N   N4        1.0  0.92011  0.25372  0.10450  1.0000
  O   O1        1.0  0.89331  0.66315  0.06357  1.0000
  O   O2        1.0  0.10668  0.33685  0.93643  1.0000
  O   O3        1.0  0.63223  0.64479  0.07307  1.0000
  O   O4        1.0  0.36777  0.35521  0.92693  1.0000
  O   O5        1.0  0.26257  0.74985  0.25147  1.0000
  O   O6        1.0  0.73743  0.25015  0.74853  1.0000
  O   O7        1.0  0.09096  0.52033  0.26153  1.0000
  O   O8        1.0  0.90903  0.47967  0.73847  1.0000
  O   O9        1.0  0.74494  0.76961  0.77304  1.0000
  O   O10       1.0  0.25506  0.23039  0.22696  1.0000
  O   O11       1.0  0.62877  0.44365  0.82699  1.0000
  O   O12       1.0  0.37123  0.55635  0.17300  1.0000
