data_image0
_chemical_formula_structural       Hg4H28C28Br8N4O8
_chemical_formula_sum              "Hg4 H28 C28 Br8 N4 O8"
_cell_length_a       8.09354
_cell_length_b       10.2228
_cell_length_c       13.6816
_cell_angle_alpha    68.7711
_cell_angle_beta     84.7187
_cell_angle_gamma    78.3232

_space_group_name_H-M_alt    "P 1"
_space_group_IT_number       1

loop_
  _space_group_symop_operation_xyz
  'x, y, z'

loop_
  _atom_site_type_symbol
  _atom_site_label
  _atom_site_symmetry_multiplicity
  _atom_site_fract_x
  _atom_site_fract_y
  _atom_site_fract_z
  _atom_site_occupancy
  Hg  Hg1       1.0  0.38849  0.32366  0.42754  1.0000
  Hg  Hg2       1.0  0.61151  0.67635  0.57245  1.0000
  Hg  Hg3       1.0  0.88145  0.35575  0.45688  1.0000
  Hg  Hg4       1.0  0.11855  0.64426  0.54311  1.0000
  H   H1        1.0  0.91575  0.53559  0.08125  1.0000
  H   H2        1.0  0.08425  0.46441  0.91874  1.0000
  H   H3        1.0  0.71908  0.36650  0.16003  1.0000
  H   H4        1.0  0.28091  0.63349  0.83997  1.0000
  H   H5        1.0  0.82425  0.12931  0.29782  1.0000
  H   H6        1.0  0.17575  0.87069  0.70218  1.0000
  H   H7        1.0  0.11947  0.06552  0.35237  1.0000
  H   H8        1.0  0.88052  0.93449  0.64763  1.0000
  H   H9        1.0  0.43628  0.27701  0.22804  1.0000
  H   H10       1.0  0.56371  0.72299  0.77196  1.0000
  H   H11       1.0  0.39635  0.11706  0.31576  1.0000
  H   H12       1.0  0.60364  0.88295  0.68424  1.0000
  H   H13       1.0  0.24771  0.69618  0.02272  1.0000
  H   H14       1.0  0.75230  0.30382  0.97728  1.0000
  H   H15       1.0  0.82782  0.76770  0.02703  1.0000
  H   H16       1.0  0.17219  0.23229  0.97298  1.0000
  H   H17       1.0  0.02145  0.93637  0.93971  1.0000
  H   H18       1.0  0.97855  0.06363  0.06029  1.0000
  H   H19       1.0  0.91501  0.16254  0.79179  1.0000
  H   H20       1.0  0.08500  0.83745  0.20821  1.0000
  H   H21       1.0  0.62467  0.21261  0.73136  1.0000
  H   H22       1.0  0.37534  0.78738  0.26864  1.0000
  H   H23       1.0  0.35568  0.14773  0.75403  1.0000
  H   H24       1.0  0.64432  0.85226  0.24598  1.0000
  H   H25       1.0  0.31538  0.98617  0.84643  1.0000
  H   H26       1.0  0.68462  0.01383  0.15357  1.0000
  H   H27       1.0  0.50492  0.59681  0.08586  1.0000
  H   H28       1.0  0.49507  0.40319  0.91414  1.0000
  C   C1        1.0  0.24037  0.50236  0.11976  1.0000
  C   C2        1.0  0.75963  0.49764  0.88024  1.0000
  C   C3        1.0  0.12928  0.39751  0.16995  1.0000
  C   C4        1.0  0.87072  0.60249  0.83004  1.0000
  C   C5        1.0  0.95954  0.43216  0.14047  1.0000
  C   C6        1.0  0.04046  0.56784  0.85953  1.0000
  C   C7        1.0  0.84937  0.33759  0.18490  1.0000
  C   C8        1.0  0.15062  0.66241  0.81510  1.0000
  C   C9        1.0  0.90822  0.20553  0.26146  1.0000
  C   C10       1.0  0.09177  0.79448  0.73854  1.0000
  C   C11       1.0  0.07518  0.16900  0.29278  1.0000
  C   C12       1.0  0.92482  0.83100  0.70722  1.0000
  C   C13       1.0  0.18862  0.26267  0.24706  1.0000
  C   C14       1.0  0.81137  0.73733  0.75293  1.0000
  C   C15       1.0  0.51038  0.78524  0.98175  1.0000
  C   C16       1.0  0.48962  0.21476  0.01825  1.0000
  C   C17       1.0  0.61671  0.89110  0.92904  1.0000
  C   C18       1.0  0.38330  0.10890  0.07096  1.0000
  C   C19       1.0  0.78426  0.86533  0.96209  1.0000
  C   C20       1.0  0.21575  0.13466  0.03792  1.0000
  C   C21       1.0  0.89227  0.95991  0.91365  1.0000
  C   C22       1.0  0.10774  0.04008  0.08635  1.0000
  C   C23       1.0  0.83233  0.08599  0.83077  1.0000
  C   C24       1.0  0.16767  0.91401  0.16923  1.0000
  C   C25       1.0  0.66885  0.11493  0.79656  1.0000
  C   C26       1.0  0.33114  0.88507  0.20344  1.0000
  C   C27       1.0  0.55676  0.01852  0.84344  1.0000
  C   C28       1.0  0.44325  0.98147  0.15656  1.0000
  Br  Br1       1.0  0.16805  0.54809  0.35509  1.0000
  Br  Br2       1.0  0.83193  0.45190  0.64489  1.0000
  Br  Br3       1.0  0.63472  0.13923  0.51955  1.0000
  Br  Br4       1.0  0.36529  0.86082  0.48046  1.0000
  Br  Br5       1.0  0.66092  0.54858  0.34703  1.0000
  Br  Br6       1.0  0.33904  0.45144  0.65298  1.0000
  Br  Br7       1.0  0.11592  0.16519  0.55771  1.0000
  Br  Br8       1.0  0.88410  0.83484  0.44228  1.0000
  N   N1        1.0  0.35463  0.22453  0.28279  1.0000
  N   N2        1.0  0.64536  0.77547  0.71721  1.0000
  N   N3        1.0  0.39954  0.04733  0.80338  1.0000
  N   N4        1.0  0.60047  0.95266  0.19662  1.0000
  O   O1        1.0  0.16248  0.63041  0.06277  1.0000
  O   O2        1.0  0.83752  0.36959  0.93722  1.0000
  O   O3        1.0  0.39816  0.47197  0.13025  1.0000
  O   O4        1.0  0.60184  0.52803  0.86975  1.0000
  O   O5        1.0  0.35962  0.79994  0.95658  1.0000
  O   O6        1.0  0.64039  0.20005  0.04342  1.0000
  O   O7        1.0  0.58330  0.66987  0.05794  1.0000
  O   O8        1.0  0.41670  0.33013  0.94206  1.0000
