data_image0
_chemical_formula_structural       Ag2H18C14N6O4
_chemical_formula_sum              "Ag2 H18 C14 N6 O4"
_cell_length_a       7.23965
_cell_length_b       6.82644
_cell_length_c       10.0702
_cell_angle_alpha    84.9844
_cell_angle_beta     104.922
_cell_angle_gamma    112.209

_space_group_name_H-M_alt    "P 1"
_space_group_IT_number       1

loop_
  _space_group_symop_operation_xyz
  'x, y, z'

loop_
  _atom_site_type_symbol
  _atom_site_label
  _atom_site_symmetry_multiplicity
  _atom_site_fract_x
  _atom_site_fract_y
  _atom_site_fract_z
  _atom_site_occupancy
  Ag  Ag1       1.0  0.86200  0.78232  0.98420  1.0000
  Ag  Ag2       1.0  0.13799  0.21766  0.01580  1.0000
  H   H1        1.0  0.74718  0.70936  0.23944  1.0000
  H   H2        1.0  0.25282  0.29063  0.76056  1.0000
  H   H3        1.0  0.52768  0.61195  0.30739  1.0000
  H   H4        1.0  0.47232  0.38805  0.69261  1.0000
  H   H5        1.0  0.47971  0.80369  0.78450  1.0000
  H   H6        1.0  0.52029  0.19630  0.21549  1.0000
  H   H7        1.0  0.21094  0.66804  0.19291  1.0000
  H   H8        1.0  0.78907  0.33196  0.80709  1.0000
  H   H9        1.0  0.12081  0.79406  0.77544  1.0000
  H   H10       1.0  0.87919  0.20593  0.22456  1.0000
  H   H11       1.0  0.51903  0.23156  0.50036  1.0000
  H   H12       1.0  0.48096  0.76845  0.49965  1.0000
  H   H13       1.0  0.49674  0.05914  0.64245  1.0000
  H   H14       1.0  0.50325  0.94087  0.35754  1.0000
  H   H15       1.0  0.14996  0.81833  0.50694  1.0000
  H   H16       1.0  0.85003  0.18169  0.49306  1.0000
  H   H17       1.0  0.16233  0.07837  0.53020  1.0000
  H   H18       1.0  0.83766  0.92164  0.46979  1.0000
  C   C1        1.0  0.41786  0.77454  0.87536  1.0000
  C   C2        1.0  0.58215  0.22545  0.12464  1.0000
  C   C3        1.0  0.27032  0.69505  0.10107  1.0000
  C   C4        1.0  0.72968  0.30495  0.89892  1.0000
  C   C5        1.0  0.47099  0.69926  0.10763  1.0000
  C   C6        1.0  0.52901  0.30073  0.89237  1.0000
  C   C7        1.0  0.22250  0.76821  0.86963  1.0000
  C   C8        1.0  0.77751  0.23178  0.13037  1.0000
  C   C9        1.0  0.14881  0.00904  0.32398  1.0000
  C   C10       1.0  0.85119  0.99096  0.67601  1.0000
  C   C11       1.0  0.45363  0.06431  0.52951  1.0000
  C   C12       1.0  0.54637  0.93571  0.47050  1.0000
  C   C13       1.0  0.22020  0.98518  0.47965  1.0000
  C   C14       1.0  0.77980  0.01483  0.52035  1.0000
  N   N1        1.0  0.58936  0.65986  0.22517  1.0000
  N   N2        1.0  0.41064  0.34014  0.77483  1.0000
  N   N3        1.0  0.54456  0.74557  0.99282  1.0000
  N   N4        1.0  0.45544  0.25442  0.00718  1.0000
  N   N5        1.0  0.15237  0.73369  0.98515  1.0000
  N   N6        1.0  0.84763  0.26631  0.01485  1.0000
  O   O1        1.0  0.01070  0.84803  0.25527  1.0000
  O   O2        1.0  0.98930  0.15198  0.74473  1.0000
  O   O3        1.0  0.23354  0.18855  0.27421  1.0000
  O   O4        1.0  0.76648  0.81146  0.72579  1.0000
