data_image0
_chemical_formula_structural       Ag4H20C20N12O8
_chemical_formula_sum              "Ag4 H20 C20 N12 O8"
_cell_length_a       7.62876
_cell_length_b       7.62883
_cell_length_c       13.6107
_cell_angle_alpha    98.0523
_cell_angle_beta     98.0518
_cell_angle_gamma    120.078

_space_group_name_H-M_alt    "P 1"
_space_group_IT_number       1

loop_
  _space_group_symop_operation_xyz
  'x, y, z'

loop_
  _atom_site_type_symbol
  _atom_site_label
  _atom_site_symmetry_multiplicity
  _atom_site_fract_x
  _atom_site_fract_y
  _atom_site_fract_z
  _atom_site_occupancy
  Ag  Ag1       1.0  0.20976  0.28005  0.50863  1.0000
  Ag  Ag2       1.0  0.77183  0.70081  0.49140  1.0000
  Ag  Ag3       1.0  0.95080  0.52182  0.99140  1.0000
  Ag  Ag4       1.0  0.53006  0.95977  0.00863  1.0000
  H   H1        1.0  0.19602  0.13800  0.27505  1.0000
  H   H2        1.0  0.86247  0.92071  0.72492  1.0000
  H   H3        1.0  0.17070  0.61247  0.22491  1.0000
  H   H4        1.0  0.38800  0.94602  0.77505  1.0000
  H   H5        1.0  0.95234  0.02327  0.10476  1.0000
  H   H6        1.0  0.91881  0.84794  0.89521  1.0000
  H   H7        1.0  0.09794  0.66881  0.39521  1.0000
  H   H8        1.0  0.27327  0.70235  0.60476  1.0000
  H   H9        1.0  0.77308  0.19748  0.41673  1.0000
  H   H10       1.0  0.78032  0.35597  0.58327  1.0000
  H   H11       1.0  0.60596  0.53033  0.08327  1.0000
  H   H12       1.0  0.44746  0.52308  0.91673  1.0000
  H   H13       1.0  0.39216  0.04990  0.17767  1.0000
  H   H14       1.0  0.87220  0.21466  0.82240  1.0000
  H   H15       1.0  0.46465  0.62219  0.32240  1.0000
  H   H16       1.0  0.29991  0.14217  0.67767  1.0000
  H   H17       1.0  0.45524  0.10764  0.31547  1.0000
  H   H18       1.0  0.79210  0.13966  0.68459  1.0000
  H   H19       1.0  0.38964  0.54210  0.18460  1.0000
  H   H20       1.0  0.35764  0.20525  0.81547  1.0000
  C   C1        1.0  0.40087  0.01750  0.50251  1.0000
  C   C2        1.0  0.51485  0.89803  0.49745  1.0000
  C   C3        1.0  0.14802  0.26484  0.99745  1.0000
  C   C4        1.0  0.26751  0.15087  0.00250  1.0000
  C   C5        1.0  0.04691  0.12569  0.26808  1.0000
  C   C6        1.0  0.85739  0.77868  0.73190  1.0000
  C   C7        1.0  0.02867  0.60739  0.23189  1.0000
  C   C8        1.0  0.37570  0.79691  0.76808  1.0000
  C   C9        1.0  0.91089  0.06420  0.17387  1.0000
  C   C10       1.0  0.89057  0.73725  0.82612  1.0000
  C   C11       1.0  0.98725  0.64057  0.32611  1.0000
  C   C12       1.0  0.31420  0.66089  0.67387  1.0000
  C   C13       1.0  0.67289  0.09557  0.25049  1.0000
  C   C14       1.0  0.84523  0.42249  0.74950  1.0000
  C   C15       1.0  0.67249  0.59524  0.24950  1.0000
  C   C16       1.0  0.34557  0.42288  0.75049  1.0000
  C   C17       1.0  0.81496  0.15925  0.34721  1.0000
  C   C18       1.0  0.81183  0.46754  0.65275  1.0000
  C   C19       1.0  0.71753  0.56184  0.15275  1.0000
  C   C20       1.0  0.40924  0.56496  0.84722  1.0000
  N   N1        1.0  0.72490  0.04926  0.16323  1.0000
  N   N2        1.0  0.88639  0.56197  0.83677  1.0000
  N   N3        1.0  0.81196  0.63639  0.33677  1.0000
  N   N4        1.0  0.29926  0.47490  0.66323  1.0000
  N   N5        1.0  0.99672  0.17299  0.35549  1.0000
  N   N6        1.0  0.81706  0.64088  0.64448  1.0000
  N   N7        1.0  0.89088  0.56707  0.14448  1.0000
  N   N8        1.0  0.42298  0.74670  0.85550  1.0000
  N   N9        1.0  0.49058  0.08219  0.24667  1.0000
  N   N10       1.0  0.83564  0.24398  0.75336  1.0000
  N   N11       1.0  0.49397  0.58564  0.25337  1.0000
  N   N12       1.0  0.33219  0.24058  0.74667  1.0000
  O   O1        1.0  0.43576  0.14753  0.44714  1.0000
  O   O2        1.0  0.70027  0.98829  0.55292  1.0000
  O   O3        1.0  0.23828  0.45025  0.05292  1.0000
  O   O4        1.0  0.39753  0.18577  0.94714  1.0000
  O   O5        1.0  0.27816  0.97668  0.56150  1.0000
  O   O6        1.0  0.41483  0.71623  0.43846  1.0000
  O   O7        1.0  0.96623  0.16482  0.93846  1.0000
  O   O8        1.0  0.22669  0.02817  0.06149  1.0000
