data_image0
_chemical_formula_structural       Sr2H22Pt2C38N14
_chemical_formula_sum              "Sr2 H22 Pt2 C38 N14"
_cell_length_a       8.68945
_cell_length_b       8.68951
_cell_length_c       13.4805
_cell_angle_alpha    80.4871
_cell_angle_beta     80.4874
_cell_angle_gamma    75.3352

_space_group_name_H-M_alt    "P 1"
_space_group_IT_number       1

loop_
  _space_group_symop_operation_xyz
  'x, y, z'

loop_
  _atom_site_type_symbol
  _atom_site_label
  _atom_site_symmetry_multiplicity
  _atom_site_fract_x
  _atom_site_fract_y
  _atom_site_fract_z
  _atom_site_occupancy
  Sr  Sr1       1.0  0.89422  0.10578  0.25000  1.0000
  Sr  Sr2       1.0  0.10577  0.89423  0.75000  1.0000
  H   H1        1.0  0.27327  0.72673  0.25000  1.0000
  H   H2        1.0  0.72673  0.27327  0.75000  1.0000
  H   H3        1.0  0.31483  0.53317  0.40528  1.0000
  H   H4        1.0  0.46683  0.68517  0.09472  1.0000
  H   H5        1.0  0.68517  0.46683  0.59472  1.0000
  H   H6        1.0  0.53317  0.31483  0.90528  1.0000
  H   H7        1.0  0.33552  0.36323  0.51760  1.0000
  H   H8        1.0  0.63677  0.66448  0.98240  1.0000
  H   H9        1.0  0.66448  0.63676  0.48240  1.0000
  H   H10       1.0  0.36324  0.33552  0.01760  1.0000
  H   H11       1.0  0.39437  0.16913  0.67043  1.0000
  H   H12       1.0  0.83087  0.60563  0.82957  1.0000
  H   H13       1.0  0.60563  0.83086  0.32957  1.0000
  H   H14       1.0  0.16914  0.39437  0.17043  1.0000
  H   H15       1.0  0.65922  0.96463  0.66554  1.0000
  H   H16       1.0  0.03537  0.34078  0.83446  1.0000
  H   H17       1.0  0.34078  0.03537  0.33446  1.0000
  H   H18       1.0  0.96464  0.65922  0.16554  1.0000
  H   H19       1.0  0.84462  0.95954  0.50348  1.0000
  H   H20       1.0  0.04046  0.15538  0.99653  1.0000
  H   H21       1.0  0.15538  0.04046  0.49653  1.0000
  H   H22       1.0  0.95955  0.84462  0.00348  1.0000
  Pt  Pt1       1.0  0.49999  0.00000  0.00001  1.0000
  Pt  Pt2       1.0  0.00000  0.50000  0.49999  1.0000
  C   C1        1.0  0.63431  0.97911  0.10847  1.0000
  C   C2        1.0  0.02089  0.36568  0.39152  1.0000
  C   C3        1.0  0.36567  0.02089  0.89154  1.0000
  C   C4        1.0  0.97911  0.63432  0.60846  1.0000
  C   C5        1.0  0.37585  0.62416  0.25000  1.0000
  C   C6        1.0  0.62416  0.37584  0.75000  1.0000
  C   C7        1.0  0.39948  0.51499  0.33684  1.0000
  C   C8        1.0  0.48501  0.60053  0.16316  1.0000
  C   C9        1.0  0.60052  0.48501  0.66316  1.0000
  C   C10       1.0  0.51499  0.39948  0.83684  1.0000
  C   C11       1.0  0.53249  0.38377  0.33487  1.0000
  C   C12       1.0  0.61623  0.46751  0.16513  1.0000
  C   C13       1.0  0.46751  0.61622  0.66513  1.0000
  C   C14       1.0  0.38377  0.53249  0.83487  1.0000
  C   C15       1.0  0.56136  0.26659  0.42790  1.0000
  C   C16       1.0  0.73341  0.43864  0.07210  1.0000
  C   C17       1.0  0.43864  0.73340  0.57210  1.0000
  C   C18       1.0  0.26660  0.56136  0.92790  1.0000
  C   C19       1.0  0.44924  0.27433  0.51585  1.0000
  C   C20       1.0  0.72567  0.55076  0.98415  1.0000
  C   C21       1.0  0.55076  0.72566  0.48415  1.0000
  C   C22       1.0  0.27434  0.44924  0.01585  1.0000
  C   C23       1.0  0.48150  0.16527  0.60214  1.0000
  C   C24       1.0  0.83474  0.51850  0.89786  1.0000
  C   C25       1.0  0.51850  0.83473  0.39786  1.0000
  C   C26       1.0  0.16528  0.48150  0.10214  1.0000
  C   C27       1.0  0.62671  0.05105  0.59969  1.0000
  C   C28       1.0  0.94895  0.37329  0.90032  1.0000
  C   C29       1.0  0.37329  0.94894  0.40032  1.0000
  C   C30       1.0  0.05106  0.62671  0.09969  1.0000
  C   C31       1.0  0.73120  0.04918  0.50926  1.0000
  C   C32       1.0  0.95082  0.26880  0.99074  1.0000
  C   C33       1.0  0.26880  0.95082  0.49074  1.0000
  C   C34       1.0  0.04918  0.73120  0.00926  1.0000
  C   C35       1.0  0.30446  0.01425  0.09974  1.0000
  C   C36       1.0  0.98574  0.69554  0.40026  1.0000
  C   C37       1.0  0.69553  0.98574  0.90027  1.0000
  C   C38       1.0  0.01425  0.30447  0.59973  1.0000
  N   N1        1.0  0.71702  0.96862  0.17088  1.0000
  N   N2        1.0  0.03139  0.28298  0.32913  1.0000
  N   N3        1.0  0.28296  0.03138  0.82914  1.0000
  N   N4        1.0  0.96862  0.71703  0.67087  1.0000
  N   N5        1.0  0.63876  0.36124  0.25000  1.0000
  N   N6        1.0  0.36124  0.63876  0.75000  1.0000
  N   N7        1.0  0.70016  0.15208  0.42504  1.0000
  N   N8        1.0  0.84792  0.29984  0.07496  1.0000
  N   N9        1.0  0.29984  0.84792  0.57496  1.0000
  N   N10       1.0  0.15208  0.70017  0.92504  1.0000
  N   N11       1.0  0.18543  0.02386  0.15619  1.0000
  N   N12       1.0  0.97613  0.81457  0.34381  1.0000
  N   N13       1.0  0.81456  0.97612  0.84382  1.0000
  N   N14       1.0  0.02387  0.18544  0.65618  1.0000
