data_image0
_chemical_formula_structural       Ca2H22Pt2C38N14
_chemical_formula_sum              "Ca2 H22 Pt2 C38 N14"
_cell_length_a       8.55602
_cell_length_b       8.55602
_cell_length_c       13.3085
_cell_angle_alpha    79.8985
_cell_angle_beta     79.8986
_cell_angle_gamma    74.7738

_space_group_name_H-M_alt    "P 1"
_space_group_IT_number       1

loop_
  _space_group_symop_operation_xyz
  'x, y, z'

loop_
  _atom_site_type_symbol
  _atom_site_label
  _atom_site_symmetry_multiplicity
  _atom_site_fract_x
  _atom_site_fract_y
  _atom_site_fract_z
  _atom_site_occupancy
  Ca  Ca1       1.0  0.39418  0.60582  0.75000  1.0000
  Ca  Ca2       1.0  0.60582  0.39418  0.25000  1.0000
  H   H1        1.0  0.18085  0.44789  0.17047  1.0000
  H   H2        1.0  0.55211  0.81915  0.32953  1.0000
  H   H3        1.0  0.81915  0.55211  0.82953  1.0000
  H   H4        1.0  0.44789  0.18085  0.67047  1.0000
  H   H5        1.0  0.36402  0.44188  0.00325  1.0000
  H   H6        1.0  0.55812  0.63598  0.49675  1.0000
  H   H7        1.0  0.63597  0.55812  0.99675  1.0000
  H   H8        1.0  0.44188  0.36402  0.50325  1.0000
  H   H9        1.0  0.84408  0.85369  0.02367  1.0000
  H   H10       1.0  0.14631  0.15592  0.47633  1.0000
  H   H11       1.0  0.15592  0.14631  0.97633  1.0000
  H   H12       1.0  0.85369  0.84408  0.52367  1.0000
  H   H13       1.0  0.90897  0.65516  0.17864  1.0000
  H   H14       1.0  0.34484  0.09103  0.32136  1.0000
  H   H15       1.0  0.09103  0.34484  0.82136  1.0000
  H   H16       1.0  0.65516  0.90897  0.67864  1.0000
  H   H17       1.0  0.81594  0.02375  0.90740  1.0000
  H   H18       1.0  0.97625  0.18406  0.59260  1.0000
  H   H19       1.0  0.18406  0.97625  0.09260  1.0000
  H   H20       1.0  0.02375  0.81593  0.40740  1.0000
  H   H21       1.0  0.77559  0.22441  0.75000  1.0000
  H   H22       1.0  0.22441  0.77559  0.25000  1.0000
  Pt  Pt1       1.0  0.50000  0.00000  1.00000  1.0000
  Pt  Pt2       1.0  0.00000  0.50000  0.50000  1.0000
  C   C1        1.0  0.48296  0.19900  0.89672  1.0000
  C   C2        1.0  0.80099  0.51705  0.60328  1.0000
  C   C3        1.0  0.51705  0.80099  0.10329  1.0000
  C   C4        1.0  0.19900  0.48296  0.39672  1.0000
  C   C5        1.0  0.49395  0.13367  0.10825  1.0000
  C   C6        1.0  0.86633  0.50605  0.39175  1.0000
  C   C7        1.0  0.50605  0.86633  0.89175  1.0000
  C   C8        1.0  0.13367  0.49395  0.60825  1.0000
  C   C9        1.0  0.14466  0.53536  0.10375  1.0000
  C   C10       1.0  0.46464  0.85533  0.39625  1.0000
  C   C11       1.0  0.85534  0.46464  0.89625  1.0000
  C   C12       1.0  0.53536  0.14466  0.60375  1.0000
  C   C13       1.0  0.24813  0.53272  0.01034  1.0000
  C   C14       1.0  0.46728  0.75187  0.48966  1.0000
  C   C15       1.0  0.75187  0.46728  0.98966  1.0000
  C   C16       1.0  0.53272  0.24813  0.51034  1.0000
  C   C17       1.0  0.95988  0.76229  0.02069  1.0000
  C   C18       1.0  0.23771  0.04013  0.47931  1.0000
  C   C19       1.0  0.04013  0.23771  0.97931  1.0000
  C   C20       1.0  0.76229  0.95987  0.52069  1.0000
  C   C21       1.0  0.99590  0.65140  0.10816  1.0000
  C   C22       1.0  0.34859  0.00410  0.39184  1.0000
  C   C23       1.0  0.00410  0.34859  0.89184  1.0000
  C   C24       1.0  0.65141  0.99590  0.60816  1.0000
  C   C25       1.0  0.90346  0.00675  0.83795  1.0000
  C   C26       1.0  0.99325  0.09654  0.66205  1.0000
  C   C27       1.0  0.09654  0.99325  0.16205  1.0000
  C   C28       1.0  0.00675  0.90346  0.33795  1.0000
  C   C29       1.0  0.88041  0.11960  0.75000  1.0000
  C   C30       1.0  0.11960  0.88040  0.25000  1.0000
  C   C31       1.0  0.03991  0.87328  0.83599  1.0000
  C   C32       1.0  0.12671  0.96009  0.66401  1.0000
  C   C33       1.0  0.96009  0.12671  0.16401  1.0000
  C   C34       1.0  0.87329  0.03991  0.33599  1.0000
  C   C35       1.0  0.07132  0.75348  0.92986  1.0000
  C   C36       1.0  0.24652  0.92868  0.57014  1.0000
  C   C37       1.0  0.92868  0.24652  0.07014  1.0000
  C   C38       1.0  0.75348  0.07132  0.42986  1.0000
  N   N1        1.0  0.47101  0.31995  0.83841  1.0000
  N   N2        1.0  0.68006  0.52899  0.66159  1.0000
  N   N3        1.0  0.52899  0.68006  0.16159  1.0000
  N   N4        1.0  0.31994  0.47101  0.33841  1.0000
  N   N5        1.0  0.14912  0.85088  0.75000  1.0000
  N   N6        1.0  0.85088  0.14912  0.25000  1.0000
  N   N7        1.0  0.21281  0.63623  0.92466  1.0000
  N   N8        1.0  0.36377  0.78719  0.57534  1.0000
  N   N9        1.0  0.78719  0.36377  0.07534  1.0000
  N   N10       1.0  0.63623  0.21281  0.42466  1.0000
  N   N11       1.0  0.49340  0.21576  0.17017  1.0000
  N   N12       1.0  0.78423  0.50661  0.32983  1.0000
  N   N13       1.0  0.50660  0.78424  0.82983  1.0000
  N   N14       1.0  0.21577  0.49340  0.67017  1.0000
