data_image0
_chemical_formula_structural       Sr2H26Au4C38N14O2
_chemical_formula_sum              "Sr2 H26 Au4 C38 N14 O2"
_cell_length_a       9.8222
_cell_length_b       10.1455
_cell_length_c       11.6528
_cell_angle_alpha    96.6726
_cell_angle_beta     92.3987
_cell_angle_gamma    113.051

_space_group_name_H-M_alt    "P 1"
_space_group_IT_number       1

loop_
  _space_group_symop_operation_xyz
  'x, y, z'

loop_
  _atom_site_type_symbol
  _atom_site_label
  _atom_site_symmetry_multiplicity
  _atom_site_fract_x
  _atom_site_fract_y
  _atom_site_fract_z
  _atom_site_occupancy
  Sr  Sr1       1.0  0.53695  0.22700  0.70974  1.0000
  Sr  Sr2       1.0  0.46305  0.77300  0.29026  1.0000
  H   H1        1.0  0.50176  0.89973  0.60591  1.0000
  H   H2        1.0  0.49824  0.10028  0.39409  1.0000
  H   H3        1.0  0.34943  0.91017  0.60984  1.0000
  H   H4        1.0  0.65057  0.08983  0.39016  1.0000
  H   H5        1.0  0.84692  0.15805  0.76788  1.0000
  H   H6        1.0  0.15308  0.84196  0.23212  1.0000
  H   H7        1.0  0.00335  0.10810  0.91733  1.0000
  H   H8        1.0  0.99665  0.89191  0.08267  1.0000
  H   H9        1.0  0.92489  0.09895  0.12201  1.0000
  H   H10       1.0  0.07511  0.90105  0.87799  1.0000
  H   H11       1.0  0.70262  0.14447  0.16605  1.0000
  H   H12       1.0  0.29738  0.85553  0.83395  1.0000
  H   H13       1.0  0.50310  0.15009  0.18515  1.0000
  H   H14       1.0  0.49690  0.84991  0.81485  1.0000
  H   H15       1.0  0.30261  0.23712  0.22287  1.0000
  H   H16       1.0  0.69739  0.76288  0.77713  1.0000
  H   H17       1.0  0.22221  0.35446  0.07597  1.0000
  H   H18       1.0  0.77779  0.64553  0.92403  1.0000
  H   H19       1.0  0.15253  0.43291  0.95015  1.0000
  H   H20       1.0  0.84747  0.56709  0.04985  1.0000
  H   H21       1.0  0.08350  0.54508  0.79168  1.0000
  H   H22       1.0  0.91650  0.45491  0.20832  1.0000
  H   H23       1.0  0.22812  0.57663  0.61640  1.0000
  H   H24       1.0  0.77188  0.42337  0.38360  1.0000
  H   H25       1.0  0.42406  0.47748  0.60326  1.0000
  H   H26       1.0  0.57594  0.52252  0.39674  1.0000
  Au  Au1       1.0  0.98838  0.66128  0.56348  1.0000
  Au  Au2       1.0  0.01162  0.33872  0.43652  1.0000
  Au  Au3       1.0  0.08975  0.07429  0.38432  1.0000
  Au  Au4       1.0  0.91025  0.92570  0.61567  1.0000
  C   C1        1.0  0.83749  0.55704  0.66402  1.0000
  C   C2        1.0  0.16250  0.44296  0.33597  1.0000
  C   C3        1.0  0.14912  0.75596  0.46721  1.0000
  C   C4        1.0  0.85087  0.24404  0.53279  1.0000
  C   C5        1.0  0.29894  0.16878  0.45064  1.0000
  C   C6        1.0  0.70106  0.83122  0.54936  1.0000
  C   C7        1.0  0.81919  0.15573  0.85765  1.0000
  C   C8        1.0  0.18081  0.84427  0.14235  1.0000
  C   C9        1.0  0.88182  0.97594  0.31550  1.0000
  C   C10       1.0  0.11819  0.02405  0.68449  1.0000
  C   C11       1.0  0.90555  0.12673  0.94112  1.0000
  C   C12       1.0  0.09445  0.87328  0.05887  1.0000
  C   C13       1.0  0.86245  0.12224  0.05346  1.0000
  C   C14       1.0  0.13755  0.87776  0.94654  1.0000
  C   C15       1.0  0.73683  0.14810  0.07844  1.0000
  C   C16       1.0  0.26317  0.85190  0.92156  1.0000
  C   C17       1.0  0.65760  0.18021  0.99047  1.0000
  C   C18       1.0  0.34240  0.81979  0.00953  1.0000
  C   C19       1.0  0.52899  0.21919  0.01435  1.0000
  C   C20       1.0  0.47102  0.78081  0.98565  1.0000
  C   C21       1.0  0.46521  0.19997  0.11996  1.0000
  C   C22       1.0  0.53480  0.80003  0.88004  1.0000
  C   C23       1.0  0.35243  0.24743  0.14076  1.0000
  C   C24       1.0  0.64757  0.75256  0.85924  1.0000
  C   C25       1.0  0.30566  0.31172  0.05709  1.0000
  C   C26       1.0  0.69434  0.68827  0.94291  1.0000
  C   C27       1.0  0.37083  0.32405  0.95193  1.0000
  C   C28       1.0  0.62917  0.67595  0.04807  1.0000
  C   C29       1.0  0.32452  0.39242  0.85967  1.0000
  C   C30       1.0  0.67548  0.60758  0.14033  1.0000
  C   C31       1.0  0.21122  0.44329  0.87236  1.0000
  C   C32       1.0  0.78878  0.55671  0.12765  1.0000
  C   C33       1.0  0.17303  0.50750  0.78404  1.0000
  C   C34       1.0  0.82698  0.49250  0.21596  1.0000
  C   C35       1.0  0.25152  0.52362  0.68619  1.0000
  C   C36       1.0  0.74847  0.47638  0.31381  1.0000
  C   C37       1.0  0.36150  0.46917  0.67928  1.0000
  C   C38       1.0  0.63850  0.53083  0.32072  1.0000
  N   N1        1.0  0.75033  0.48955  0.72302  1.0000
  N   N2        1.0  0.24967  0.51045  0.27697  1.0000
  N   N3        1.0  0.25053  0.80869  0.41395  1.0000
  N   N4        1.0  0.74947  0.19131  0.58606  1.0000
  N   N5        1.0  0.42321  0.22127  0.49111  1.0000
  N   N6        1.0  0.57679  0.77873  0.50890  1.0000
  N   N7        1.0  0.69888  0.18227  0.88098  1.0000
  N   N8        1.0  0.30112  0.81773  0.11902  1.0000
  N   N9        1.0  0.75632  0.92296  0.27921  1.0000
  N   N10       1.0  0.24369  0.07703  0.72078  1.0000
  N   N11       1.0  0.48018  0.27742  0.93167  1.0000
  N   N12       1.0  0.51982  0.72258  0.06833  1.0000
  N   N13       1.0  0.39610  0.40362  0.76233  1.0000
  N   N14       1.0  0.60390  0.59638  0.23767  1.0000
  O   O1        1.0  0.44722  0.94572  0.65331  1.0000
  O   O2        1.0  0.55279  0.05428  0.34670  1.0000
