data_image0
_chemical_formula_structural       Mg2H26Pt2C38N14O2
_chemical_formula_sum              "Mg2 H26 Pt2 C38 N14 O2"
_cell_length_a       9.75448
_cell_length_b       9.75449
_cell_length_c       11.5529
_cell_angle_alpha    82.5431
_cell_angle_beta     82.5431
_cell_angle_gamma    72.5521

_space_group_name_H-M_alt    "P 1"
_space_group_IT_number       1

loop_
  _space_group_symop_operation_xyz
  'x, y, z'

loop_
  _atom_site_type_symbol
  _atom_site_label
  _atom_site_symmetry_multiplicity
  _atom_site_fract_x
  _atom_site_fract_y
  _atom_site_fract_z
  _atom_site_occupancy
  Mg  Mg1       1.0  0.73119  0.26881  0.25000  1.0000
  Mg  Mg2       1.0  0.26881  0.73119  0.75000  1.0000
  H   H1        1.0  0.45723  0.43927  0.27223  1.0000
  H   H2        1.0  0.56073  0.54277  0.22777  1.0000
  H   H3        1.0  0.54277  0.56073  0.72777  1.0000
  H   H4        1.0  0.43927  0.45723  0.77223  1.0000
  H   H5        1.0  0.66328  0.86761  0.68912  1.0000
  H   H6        1.0  0.13238  0.33672  0.81088  1.0000
  H   H7        1.0  0.33672  0.13238  0.31088  1.0000
  H   H8        1.0  0.86762  0.66327  0.18912  1.0000
  H   H9        1.0  0.87530  0.80580  0.54076  1.0000
  H   H10       1.0  0.19420  0.12470  0.95924  1.0000
  H   H11       1.0  0.12470  0.19420  0.45924  1.0000
  H   H12       1.0  0.80580  0.87530  0.04076  1.0000
  H   H13       1.0  0.25026  0.74974  0.25000  1.0000
  H   H14       1.0  0.74974  0.25026  0.75000  1.0000
  H   H15       1.0  0.05808  0.77346  0.41634  1.0000
  H   H16       1.0  0.22654  0.94192  0.08366  1.0000
  H   H17       1.0  0.94192  0.22654  0.58366  1.0000
  H   H18       1.0  0.77346  0.05808  0.91634  1.0000
  H   H19       1.0  0.47987  0.11169  0.66361  1.0000
  H   H20       1.0  0.88831  0.52013  0.83639  1.0000
  H   H21       1.0  0.52013  0.88831  0.33639  1.0000
  H   H22       1.0  0.11169  0.47987  0.16361  1.0000
  H   H23       1.0  0.51390  0.27800  0.48516  1.0000
  H   H24       1.0  0.72200  0.48610  0.01484  1.0000
  H   H25       1.0  0.48610  0.72200  0.51484  1.0000
  H   H26       1.0  0.27800  0.51390  0.98516  1.0000
  Pt  Pt1       1.0  0.00000  0.50000  0.50000  1.0000
  Pt  Pt2       1.0  0.50000  0.00000  0.00000  1.0000
  C   C1        1.0  0.90502  0.42886  0.38940  1.0000
  C   C2        1.0  0.57115  0.09498  0.11060  1.0000
  C   C3        1.0  0.09498  0.57114  0.61060  1.0000
  C   C4        1.0  0.42885  0.90502  0.88940  1.0000
  C   C5        1.0  0.18176  0.45960  0.39475  1.0000
  C   C6        1.0  0.54040  0.81824  0.10525  1.0000
  C   C7        1.0  0.81824  0.54040  0.60525  1.0000
  C   C8        1.0  0.45960  0.18176  0.89475  1.0000
  C   C9        1.0  0.67574  0.94512  0.61450  1.0000
  C   C10       1.0  0.05488  0.32426  0.88550  1.0000
  C   C11       1.0  0.32426  0.05488  0.38550  1.0000
  C   C12       1.0  0.94512  0.67574  0.11450  1.0000
  C   C13       1.0  0.80623  0.00919  0.43415  1.0000
  C   C14       1.0  0.99081  0.19376  0.06585  1.0000
  C   C15       1.0  0.19377  0.99081  0.56585  1.0000
  C   C16       1.0  0.00919  0.80624  0.93415  1.0000
  C   C17       1.0  0.79427  0.91010  0.53109  1.0000
  C   C18       1.0  0.08990  0.20573  0.96891  1.0000
  C   C19       1.0  0.20573  0.08990  0.46891  1.0000
  C   C20       1.0  0.91010  0.79427  0.03109  1.0000
  C   C21       1.0  0.92830  0.98007  0.34063  1.0000
  C   C22       1.0  0.01993  0.07170  0.15937  1.0000
  C   C23       1.0  0.07170  0.01993  0.65937  1.0000
  C   C24       1.0  0.98007  0.92830  0.84063  1.0000
  C   C25       1.0  0.15584  0.84416  0.25000  1.0000
  C   C26       1.0  0.84416  0.15584  0.75000  1.0000
  C   C27       1.0  0.04822  0.85731  0.34336  1.0000
  C   C28       1.0  0.14269  0.95178  0.15664  1.0000
  C   C29       1.0  0.95178  0.14270  0.65664  1.0000
  C   C30       1.0  0.85730  0.04822  0.84336  1.0000
  C   C31       1.0  0.57314  0.07920  0.59998  1.0000
  C   C32       1.0  0.92080  0.42686  0.90002  1.0000
  C   C33       1.0  0.42686  0.92080  0.40002  1.0000
  C   C34       1.0  0.07920  0.57314  0.09998  1.0000
  C   C35       1.0  0.59227  0.17251  0.50109  1.0000
  C   C36       1.0  0.82749  0.40773  0.99892  1.0000
  C   C37       1.0  0.40773  0.82749  0.49892  1.0000
  C   C38       1.0  0.17251  0.59227  0.00108  1.0000
  N   N1        1.0  0.84851  0.38173  0.32742  1.0000
  N   N2        1.0  0.61827  0.15149  0.17258  1.0000
  N   N3        1.0  0.15149  0.61827  0.67258  1.0000
  N   N4        1.0  0.38173  0.84851  0.82742  1.0000
  N   N5        1.0  0.28844  0.43619  0.33150  1.0000
  N   N6        1.0  0.56381  0.71156  0.16850  1.0000
  N   N7        1.0  0.71156  0.56381  0.66850  1.0000
  N   N8        1.0  0.43619  0.28844  0.83150  1.0000
  N   N9        1.0  0.91722  0.08278  0.25000  1.0000
  N   N10       1.0  0.08278  0.91722  0.75000  1.0000
  N   N11       1.0  0.70493  0.13875  0.41950  1.0000
  N   N12       1.0  0.86125  0.29507  0.08050  1.0000
  N   N13       1.0  0.29507  0.86125  0.58050  1.0000
  N   N14       1.0  0.13875  0.70493  0.91950  1.0000
  O   O1        1.0  0.55925  0.44076  0.25000  1.0000
  O   O2        1.0  0.44075  0.55925  0.75000  1.0000
