data_image0
_chemical_formula_structural       Ba2H22Pt2C38N14
_chemical_formula_sum              "Ba2 H22 Pt2 C38 N14"
_cell_length_a       8.70734
_cell_length_b       8.70731
_cell_length_c       13.5425
_cell_angle_alpha    83.0208
_cell_angle_beta     83.0208
_cell_angle_gamma    77.377

_space_group_name_H-M_alt    "P 1"
_space_group_IT_number       1

loop_
  _space_group_symop_operation_xyz
  'x, y, z'

loop_
  _atom_site_type_symbol
  _atom_site_label
  _atom_site_symmetry_multiplicity
  _atom_site_fract_x
  _atom_site_fract_y
  _atom_site_fract_z
  _atom_site_occupancy
  Ba  Ba1       1.0  0.89379  0.10621  0.75000  1.0000
  Ba  Ba2       1.0  0.10621  0.89379  0.25000  1.0000
  H   H1        1.0  0.32170  0.36869  0.00499  1.0000
  H   H2        1.0  0.63132  0.67829  0.49501  1.0000
  H   H3        1.0  0.67831  0.63132  0.99502  1.0000
  H   H4        1.0  0.36868  0.32170  0.50499  1.0000
  H   H5        1.0  0.82865  0.98981  0.00560  1.0000
  H   H6        1.0  0.01020  0.17134  0.49439  1.0000
  H   H7        1.0  0.17134  0.01018  0.99440  1.0000
  H   H8        1.0  0.98981  0.82867  0.50561  1.0000
  H   H9        1.0  0.37538  0.18325  0.15593  1.0000
  H   H10       1.0  0.81675  0.62461  0.34406  1.0000
  H   H11       1.0  0.62461  0.81676  0.84407  1.0000
  H   H12       1.0  0.18324  0.37539  0.65594  1.0000
  H   H13       1.0  0.63735  0.98914  0.15823  1.0000
  H   H14       1.0  0.01086  0.36265  0.34176  1.0000
  H   H15       1.0  0.36264  0.01085  0.84177  1.0000
  H   H16       1.0  0.98914  0.63736  0.65824  1.0000
  H   H17       1.0  0.31572  0.54538  0.90263  1.0000
  H   H18       1.0  0.45464  0.68428  0.59736  1.0000
  H   H19       1.0  0.68428  0.45463  0.09736  1.0000
  H   H20       1.0  0.54536  0.31572  0.40264  1.0000
  H   H21       1.0  0.27031  0.72970  0.74999  1.0000
  H   H22       1.0  0.72969  0.27031  0.25000  1.0000
  Pt  Pt1       1.0  0.50000  0.99999  0.50000  1.0000
  Pt  Pt2       1.0  1.00000  0.50000  1.00000  1.0000
  C   C1        1.0  0.30381  0.00354  0.59048  1.0000
  C   C2        1.0  0.99646  0.69620  0.90952  1.0000
  C   C3        1.0  0.69620  0.99644  0.40952  1.0000
  C   C4        1.0  0.00354  0.30381  0.09047  1.0000
  C   C5        1.0  0.63217  0.94999  0.61319  1.0000
  C   C6        1.0  0.04999  0.36784  0.88681  1.0000
  C   C7        1.0  0.36784  0.04999  0.38681  1.0000
  C   C8        1.0  0.95002  0.63217  0.11318  1.0000
  C   C9        1.0  0.43528  0.28613  0.00664  1.0000
  C   C10       1.0  0.71388  0.56471  0.49335  1.0000
  C   C11       1.0  0.56472  0.71388  0.99336  1.0000
  C   C12       1.0  0.28612  0.43529  0.50665  1.0000
  C   C13       1.0  0.71580  0.07452  0.00832  1.0000
  C   C14       1.0  0.92549  0.28419  0.49168  1.0000
  C   C15       1.0  0.28419  0.92548  0.99168  1.0000
  C   C16       1.0  0.07452  0.71581  0.50833  1.0000
  C   C17       1.0  0.46412  0.18082  0.09157  1.0000
  C   C18       1.0  0.81919  0.53586  0.40842  1.0000
  C   C19       1.0  0.53587  0.81919  0.90843  1.0000
  C   C20       1.0  0.18081  0.46413  0.59158  1.0000
  C   C21       1.0  0.60813  0.07303  0.09329  1.0000
  C   C22       1.0  0.92698  0.39186  0.40670  1.0000
  C   C23       1.0  0.39186  0.92697  0.90671  1.0000
  C   C24       1.0  0.07302  0.60814  0.59330  1.0000
  C   C25       1.0  0.52438  0.39628  0.83302  1.0000
  C   C26       1.0  0.60373  0.47561  0.66697  1.0000
  C   C27       1.0  0.47562  0.60373  0.16698  1.0000
  C   C28       1.0  0.39626  0.52439  0.33303  1.0000
  C   C29       1.0  0.39563  0.52529  0.83517  1.0000
  C   C30       1.0  0.47472  0.60436  0.66483  1.0000
  C   C31       1.0  0.60437  0.47472  0.16483  1.0000
  C   C32       1.0  0.52528  0.39565  0.33517  1.0000
  C   C33       1.0  0.37036  0.62964  0.75000  1.0000
  C   C34       1.0  0.62964  0.37036  0.25000  1.0000
  C   C35       1.0  0.55057  0.28261  0.92437  1.0000
  C   C36       1.0  0.71739  0.44943  0.57563  1.0000
  C   C37       1.0  0.44943  0.71739  0.07563  1.0000
  C   C38       1.0  0.28262  0.55057  0.42437  1.0000
  N   N1        1.0  0.18439  0.00611  0.64119  1.0000
  N   N2        1.0  0.99390  0.81562  0.85882  1.0000
  N   N3        1.0  0.81561  0.99388  0.35881  1.0000
  N   N4        1.0  0.00611  0.18439  0.14118  1.0000
  N   N5        1.0  0.71507  0.92008  0.67810  1.0000
  N   N6        1.0  0.07990  0.28494  0.82191  1.0000
  N   N7        1.0  0.28495  0.07990  0.32191  1.0000
  N   N8        1.0  0.92010  0.71506  0.17809  1.0000
  N   N9        1.0  0.68894  0.17531  0.92592  1.0000
  N   N10       1.0  0.82470  0.31106  0.57407  1.0000
  N   N11       1.0  0.31105  0.82469  0.07408  1.0000
  N   N12       1.0  0.17531  0.68894  0.42593  1.0000
  N   N13       1.0  0.62713  0.37287  0.75000  1.0000
  N   N14       1.0  0.37287  0.62713  0.25000  1.0000
