data_image0
_chemical_formula_structural       Fe2H16Au4C28Br4N12
_chemical_formula_sum              "Fe2 H16 Au4 C28 Br4 N12"
_cell_length_a       10.041
_cell_length_b       10.041
_cell_length_c       10.1792
_cell_angle_alpha    75.9833
_cell_angle_beta     75.9833
_cell_angle_gamma    79.8589

_space_group_name_H-M_alt    "P 1"
_space_group_IT_number       1

loop_
  _space_group_symop_operation_xyz
  'x, y, z'

loop_
  _atom_site_type_symbol
  _atom_site_label
  _atom_site_symmetry_multiplicity
  _atom_site_fract_x
  _atom_site_fract_y
  _atom_site_fract_z
  _atom_site_occupancy
  Fe  Fe1       1.0  0.75748  0.75749  0.34407  1.0000
  Fe  Fe2       1.0  0.24251  0.24251  0.65593  1.0000
  H   H1        1.0  0.64807  0.96907  0.12885  1.0000
  H   H2        1.0  0.03093  0.35193  0.87115  1.0000
  H   H3        1.0  0.35193  0.03093  0.87115  1.0000
  H   H4        1.0  0.96907  0.64807  0.12885  1.0000
  H   H5        1.0  0.69398  0.02968  0.87051  1.0000
  H   H6        1.0  0.97032  0.30602  0.12949  1.0000
  H   H7        1.0  0.30602  0.97032  0.12949  1.0000
  H   H8        1.0  0.02968  0.69398  0.87051  1.0000
  H   H9        1.0  0.54290  0.86462  0.56069  1.0000
  H   H10       1.0  0.13538  0.45710  0.43931  1.0000
  H   H11       1.0  0.45710  0.13538  0.43931  1.0000
  H   H12       1.0  0.86462  0.54290  0.56069  1.0000
  H   H13       1.0  0.47930  0.81505  0.81733  1.0000
  H   H14       1.0  0.18495  0.52070  0.18267  1.0000
  H   H15       1.0  0.52070  0.18495  0.18267  1.0000
  H   H16       1.0  0.81505  0.47930  0.81733  1.0000
  Au  Au1       1.0  0.25862  0.75275  0.34497  1.0000
  Au  Au2       1.0  0.24725  0.74138  0.65503  1.0000
  Au  Au3       1.0  0.74138  0.24725  0.65503  1.0000
  Au  Au4       1.0  0.75275  0.25862  0.34497  1.0000
  C   C1        1.0  0.45429  0.76582  0.33610  1.0000
  C   C2        1.0  0.23418  0.54571  0.66390  1.0000
  C   C3        1.0  0.54571  0.23418  0.66390  1.0000
  C   C4        1.0  0.76582  0.45429  0.33610  1.0000
  C   C5        1.0  0.06323  0.74307  0.34779  1.0000
  C   C6        1.0  0.25692  0.93678  0.65220  1.0000
  C   C7        1.0  0.93678  0.25692  0.65220  1.0000
  C   C8        1.0  0.74308  0.06322  0.34779  1.0000
  C   C9        1.0  0.73217  0.91160  0.06765  1.0000
  C   C10       1.0  0.08840  0.26783  0.93235  1.0000
  C   C11       1.0  0.26783  0.08840  0.93235  1.0000
  C   C12       1.0  0.91160  0.73217  0.06765  1.0000
  C   C13       1.0  0.75764  0.94439  0.92402  1.0000
  C   C14       1.0  0.05562  0.24236  0.07599  1.0000
  C   C15       1.0  0.24236  0.05562  0.07599  1.0000
  C   C16       1.0  0.94439  0.75764  0.92402  1.0000
  C   C17       1.0  0.86565  0.86565  0.85096  1.0000
  C   C18       1.0  0.13435  0.13435  0.14904  1.0000
  C   C19       1.0  0.60075  0.78022  0.62106  1.0000
  C   C20       1.0  0.21978  0.39925  0.37894  1.0000
  C   C21       1.0  0.39925  0.21978  0.37894  1.0000
  C   C22       1.0  0.78022  0.60075  0.62106  1.0000
  C   C23       1.0  0.56599  0.75244  0.76489  1.0000
  C   C24       1.0  0.24756  0.43401  0.23511  1.0000
  C   C25       1.0  0.43401  0.24756  0.23511  1.0000
  C   C26       1.0  0.75244  0.56599  0.76489  1.0000
  C   C27       1.0  0.64439  0.64439  0.83815  1.0000
  C   C28       1.0  0.35561  0.35561  0.16185  1.0000
  Br  Br1       1.0  0.90079  0.90079  0.65585  1.0000
  Br  Br2       1.0  0.09921  0.09921  0.34415  1.0000
  Br  Br3       1.0  0.60782  0.60782  0.03358  1.0000
  Br  Br4       1.0  0.39218  0.39218  0.96643  1.0000
  N   N1        1.0  0.56970  0.77108  0.33729  1.0000
  N   N2        1.0  0.22892  0.43030  0.66271  1.0000
  N   N3        1.0  0.43030  0.22892  0.66271  1.0000
  N   N4        1.0  0.77108  0.56970  0.33729  1.0000
  N   N5        1.0  0.94610  0.74230  0.34969  1.0000
  N   N6        1.0  0.25770  0.05389  0.65031  1.0000
  N   N7        1.0  0.05389  0.25770  0.65031  1.0000
  N   N8        1.0  0.74230  0.94611  0.34969  1.0000
  N   N9        1.0  0.80675  0.80675  0.13972  1.0000
  N   N10       1.0  0.19325  0.19325  0.86028  1.0000
  N   N11       1.0  0.70701  0.70701  0.54912  1.0000
  N   N12       1.0  0.29299  0.29299  0.45089  1.0000
