data_image0
_chemical_formula_structural       Ag2B12H30C20N6
_chemical_formula_sum              "Ag2 B12 H30 C20 N6"
_cell_length_a       7.20556
_cell_length_b       9.67894
_cell_length_c       11.2264
_cell_angle_alpha    111.946
_cell_angle_beta     112.979
_cell_angle_gamma    89.0614

_space_group_name_H-M_alt    "P 1"
_space_group_IT_number       1

loop_
  _space_group_symop_operation_xyz
  'x, y, z'

loop_
  _atom_site_type_symbol
  _atom_site_label
  _atom_site_symmetry_multiplicity
  _atom_site_fract_x
  _atom_site_fract_y
  _atom_site_fract_z
  _atom_site_occupancy
  Ag  Ag1       1.0  0.95481  0.25705  0.30554  1.0000
  Ag  Ag2       1.0  0.04521  0.74294  0.69445  1.0000
  B   B1        1.0  0.26738  0.43938  0.47865  1.0000
  B   B2        1.0  0.73261  0.56062  0.52135  1.0000
  B   B3        1.0  0.34652  0.37426  0.33854  1.0000
  B   B4        1.0  0.65347  0.62574  0.66146  1.0000
  B   B5        1.0  0.30038  0.56381  0.40247  1.0000
  B   B6        1.0  0.69962  0.43619  0.59753  1.0000
  B   B7        1.0  0.38802  0.62785  0.58766  1.0000
  B   B8        1.0  0.61198  0.37215  0.41234  1.0000
  B   B9        1.0  0.48493  0.47811  0.63867  1.0000
  B   B10       1.0  0.51507  0.52189  0.36134  1.0000
  B   B11       1.0  0.45921  0.32085  0.48475  1.0000
  B   B12       1.0  0.54079  0.67915  0.51525  1.0000
  H   H1        1.0  0.67242  0.85674  0.88208  1.0000
  H   H2        1.0  0.32757  0.14326  0.11793  1.0000
  H   H3        1.0  0.88427  0.04742  0.42829  1.0000
  H   H4        1.0  0.11573  0.95257  0.57172  1.0000
  H   H5        1.0  0.78336  0.77842  0.37900  1.0000
  H   H6        1.0  0.21663  0.22158  0.62100  1.0000
  H   H7        1.0  0.64807  0.58975  0.12723  1.0000
  H   H8        1.0  0.35192  0.41025  0.87276  1.0000
  H   H9        1.0  0.61909  0.67690  0.93865  1.0000
  H   H10       1.0  0.38090  0.32311  0.06134  1.0000
  H   H11       1.0  0.65315  0.95277  0.73414  1.0000
  H   H12       1.0  0.34686  0.04723  0.26586  1.0000
  H   H13       1.0  0.69979  0.18056  0.68894  1.0000
  H   H14       1.0  0.30023  0.81943  0.31106  1.0000
  H   H15       1.0  0.82905  0.43257  0.89377  1.0000
  H   H16       1.0  0.17097  0.56742  0.10621  1.0000
  H   H17       1.0  0.91379  0.44241  0.13569  1.0000
  H   H18       1.0  0.08620  0.55760  0.86430  1.0000
  H   H19       1.0  0.10493  0.40511  0.48319  1.0000
  H   H20       1.0  0.89506  0.59489  0.51681  1.0000
  H   H21       1.0  0.23831  0.28652  0.22183  1.0000
  H   H22       1.0  0.76168  0.71348  0.77817  1.0000
  H   H23       1.0  0.15879  0.60907  0.33482  1.0000
  H   H24       1.0  0.84120  0.39093  0.66518  1.0000
  H   H25       1.0  0.31310  0.72204  0.65352  1.0000
  H   H26       1.0  0.68690  0.27797  0.34648  1.0000
  H   H27       1.0  0.47241  0.46536  0.73741  1.0000
  H   H28       1.0  0.52758  0.53464  0.26259  1.0000
  H   H29       1.0  0.42807  0.19437  0.47405  1.0000
  H   H30       1.0  0.57193  0.80563  0.52595  1.0000
  C   C1        1.0  0.83000  0.96008  0.32175  1.0000
  C   C2        1.0  0.17000  0.03991  0.67826  1.0000
  C   C3        1.0  0.77411  0.81176  0.29461  1.0000
  C   C4        1.0  0.22589  0.18825  0.70540  1.0000
  C   C5        1.0  0.69791  0.70722  0.15397  1.0000
  C   C6        1.0  0.30208  0.29279  0.84603  1.0000
  C   C7        1.0  0.68131  0.75501  0.04930  1.0000
  C   C8        1.0  0.31869  0.24500  0.95071  1.0000
  C   C9        1.0  0.74369  0.90884  0.08645  1.0000
  C   C10       1.0  0.25632  0.09117  0.91356  1.0000
  C   C11       1.0  0.75445  0.07992  0.95981  1.0000
  C   C12       1.0  0.24555  0.92009  0.04019  1.0000
  C   C13       1.0  0.70975  0.06381  0.82048  1.0000
  C   C14       1.0  0.29025  0.93618  0.17951  1.0000
  C   C15       1.0  0.73634  0.18991  0.79570  1.0000
  C   C16       1.0  0.26367  0.81008  0.20430  1.0000
  C   C17       1.0  0.80868  0.33066  0.90957  1.0000
  C   C18       1.0  0.19133  0.66933  0.09041  1.0000
  C   C19       1.0  0.85224  0.33645  0.04289  1.0000
  C   C20       1.0  0.14776  0.66356  0.95711  1.0000
  N   N1        1.0  0.81857  0.00928  0.22133  1.0000
  N   N2        1.0  0.18144  0.99073  0.77869  1.0000
  N   N3        1.0  0.82554  0.21467  0.06944  1.0000
  N   N4        1.0  0.17446  0.78534  0.93056  1.0000
  N   N5        1.0  0.72038  0.94863  0.97571  1.0000
  N   N6        1.0  0.27963  0.05138  0.02430  1.0000
