data_image0
_chemical_formula_structural       Mn2H16C14N8O6
_chemical_formula_sum              "Mn2 H16 C14 N8 O6"
_cell_length_a       7.29284
_cell_length_b       7.39847
_cell_length_c       9.43296
_cell_angle_alpha    82.6604
_cell_angle_beta     73.0598
_cell_angle_gamma    62.5984

_space_group_name_H-M_alt    "P 1"
_space_group_IT_number       1

loop_
  _space_group_symop_operation_xyz
  'x, y, z'

loop_
  _atom_site_type_symbol
  _atom_site_label
  _atom_site_symmetry_multiplicity
  _atom_site_fract_x
  _atom_site_fract_y
  _atom_site_fract_z
  _atom_site_occupancy
  Mn  Mn1       1.0  0.50000  0.00001  1.00000  1.0000
  Mn  Mn2       1.0  0.99999  0.50000  0.00000  1.0000
  H   H1        1.0  0.13069  0.02996  0.17160  1.0000
  H   H2        1.0  0.86931  0.97004  0.82840  1.0000
  H   H3        1.0  0.30340  0.78604  0.19245  1.0000
  H   H4        1.0  0.69660  0.21396  0.80755  1.0000
  H   H5        1.0  0.45004  0.77174  0.64382  1.0000
  H   H6        1.0  0.54996  0.22826  0.35619  1.0000
  H   H7        1.0  0.47629  0.68225  0.39350  1.0000
  H   H8        1.0  0.52370  0.31775  0.60650  1.0000
  H   H9        1.0  0.98783  0.38395  0.58945  1.0000
  H   H10       1.0  0.01218  0.61605  0.41055  1.0000
  H   H11       1.0  0.01374  0.29581  0.33700  1.0000
  H   H12       1.0  0.98626  0.70419  0.66300  1.0000
  H   H13       1.0  0.30244  0.60970  0.83098  1.0000
  H   H14       1.0  0.69756  0.39030  0.16903  1.0000
  H   H15       1.0  0.17641  0.82206  0.90149  1.0000
  H   H16       1.0  0.82358  0.17794  0.09851  1.0000
  C   C1        1.0  0.20684  0.14635  0.78102  1.0000
  C   C2        1.0  0.79315  0.85366  0.21898  1.0000
  C   C3        1.0  0.21562  0.08445  0.63488  1.0000
  C   C4        1.0  0.78438  0.91555  0.36512  1.0000
  C   C5        1.0  0.35026  0.88602  0.57872  1.0000
  C   C6        1.0  0.64974  0.11397  0.42128  1.0000
  C   C7        1.0  0.36788  0.83597  0.43676  1.0000
  C   C8        1.0  0.63212  0.16403  0.56324  1.0000
  C   C9        1.0  0.09566  0.23099  0.54552  1.0000
  C   C10       1.0  0.90434  0.76901  0.45447  1.0000
  C   C11       1.0  0.11077  0.18207  0.40426  1.0000
  C   C12       1.0  0.88923  0.81793  0.59573  1.0000
  C   C13       1.0  0.24874  0.98400  0.34800  1.0000
  C   C14       1.0  0.75126  0.01600  0.65200  1.0000
  N   N1        1.0  0.30271  0.31658  0.06514  1.0000
  N   N2        1.0  0.69729  0.68342  0.93486  1.0000
  N   N3        1.0  0.34964  0.40663  0.13439  1.0000
  N   N4        1.0  0.65036  0.59337  0.86561  1.0000
  N   N5        1.0  0.39290  0.49687  0.20201  1.0000
  N   N6        1.0  0.60710  0.50312  0.79800  1.0000
  N   N7        1.0  0.26870  0.93653  0.20174  1.0000
  N   N8        1.0  0.73130  0.06347  0.79826  1.0000
  O   O1        1.0  0.27709  0.00923  0.87759  1.0000
  O   O2        1.0  0.72291  0.99078  0.12241  1.0000
  O   O3        1.0  0.13078  0.33669  0.80485  1.0000
  O   O4        1.0  0.86922  0.66332  0.19515  1.0000
  O   O5        1.0  0.15502  0.70442  0.88312  1.0000
  O   O6        1.0  0.84498  0.29558  0.11688  1.0000
