data_image0
_chemical_formula_structural       Mg4P4H28C8O32
_chemical_formula_sum              "Mg4 P4 H28 C8 O32"
_cell_length_a       5.70004
_cell_length_b       7.78704
_cell_length_c       15.4713
_cell_angle_alpha    90.0052
_cell_angle_beta     89.9972
_cell_angle_gamma    110.391

_space_group_name_H-M_alt    "P 1"
_space_group_IT_number       1

loop_
  _space_group_symop_operation_xyz
  'x, y, z'

loop_
  _atom_site_type_symbol
  _atom_site_label
  _atom_site_symmetry_multiplicity
  _atom_site_fract_x
  _atom_site_fract_y
  _atom_site_fract_z
  _atom_site_occupancy
  Mg  Mg1       1.0  0.76065  0.02124  0.63472  1.0000
  Mg  Mg2       1.0  0.23936  0.47877  0.13472  1.0000
  Mg  Mg3       1.0  0.23935  0.97875  0.36528  1.0000
  Mg  Mg4       1.0  0.76065  0.52124  0.86528  1.0000
  P   P1        1.0  0.51759  0.34013  0.68036  1.0000
  P   P2        1.0  0.48241  0.15987  0.18037  1.0000
  P   P3        1.0  0.48241  0.65986  0.31964  1.0000
  P   P4        1.0  0.51760  0.84014  0.81963  1.0000
  H   H1        1.0  0.45200  0.71805  0.55364  1.0000
  H   H2        1.0  0.54802  0.78198  0.05363  1.0000
  H   H3        1.0  0.54799  0.28194  0.44636  1.0000
  H   H4        1.0  0.45200  0.21803  0.94636  1.0000
  H   H5        1.0  0.55223  0.86141  0.47967  1.0000
  H   H6        1.0  0.44779  0.63861  0.97966  1.0000
  H   H7        1.0  0.44776  0.13858  0.52033  1.0000
  H   H8        1.0  0.55221  0.36139  0.02034  1.0000
  H   H9        1.0  0.03504  0.83290  0.57445  1.0000
  H   H10       1.0  0.96496  0.66710  0.07444  1.0000
  H   H11       1.0  0.96496  0.16710  0.42555  1.0000
  H   H12       1.0  0.03503  0.33290  0.92555  1.0000
  H   H13       1.0  0.21514  0.98843  0.63454  1.0000
  H   H14       1.0  0.78486  0.51159  0.13454  1.0000
  H   H15       1.0  0.78486  0.01157  0.36546  1.0000
  H   H16       1.0  0.21514  0.48841  0.86546  1.0000
  H   H17       1.0  0.00928  0.26532  0.77436  1.0000
  H   H18       1.0  0.99071  0.23467  0.27436  1.0000
  H   H19       1.0  0.99070  0.73468  0.22564  1.0000
  H   H20       1.0  0.00929  0.76532  0.72564  1.0000
  H   H21       1.0  0.22490  0.50367  0.69346  1.0000
  H   H22       1.0  0.77510  0.99633  0.19345  1.0000
  H   H23       1.0  0.77509  0.49632  0.30654  1.0000
  H   H24       1.0  0.22492  0.00368  0.80655  1.0000
  H   H25       1.0  0.73261  0.50637  0.56761  1.0000
  H   H26       1.0  0.26736  0.99362  0.06760  1.0000
  H   H27       1.0  0.26738  0.49363  0.43239  1.0000
  H   H28       1.0  0.73264  0.00639  0.93240  1.0000
  C   C1        1.0  0.20780  0.36814  0.66762  1.0000
  C   C2        1.0  0.79221  0.13186  0.16762  1.0000
  C   C3        1.0  0.79220  0.63185  0.33238  1.0000
  C   C4        1.0  0.20780  0.86815  0.83238  1.0000
  C   C5        1.0  0.13748  0.36022  0.57266  1.0000
  C   C6        1.0  0.86253  0.13979  0.07266  1.0000
  C   C7        1.0  0.86251  0.63977  0.42735  1.0000
  C   C8        1.0  0.13748  0.86023  0.92734  1.0000
  O   O1        1.0  0.49436  0.15775  0.63555  1.0000
  O   O2        1.0  0.50564  0.34225  0.13556  1.0000
  O   O3        1.0  0.50564  0.84225  0.36445  1.0000
  O   O4        1.0  0.49436  0.65775  0.86444  1.0000
  O   O5        1.0  0.55783  0.84756  0.54292  1.0000
  O   O6        1.0  0.44218  0.65246  0.04292  1.0000
  O   O7        1.0  0.44217  0.15243  0.45707  1.0000
  O   O8        1.0  0.55782  0.34755  0.95708  1.0000
  O   O9        1.0  0.04229  0.89482  0.63106  1.0000
  O   O10       1.0  0.95770  0.60520  0.13105  1.0000
  O   O11       1.0  0.95771  0.10518  0.36894  1.0000
  O   O12       1.0  0.04229  0.39481  0.86894  1.0000
  O   O13       1.0  0.57101  0.84549  0.72432  1.0000
  O   O14       1.0  0.42899  0.65451  0.22432  1.0000
  O   O15       1.0  0.42900  0.15451  0.27568  1.0000
  O   O16       1.0  0.57102  0.34548  0.77568  1.0000
  O   O17       1.0  0.02318  0.22370  0.71381  1.0000
  O   O18       1.0  0.97682  0.27630  0.21382  1.0000
  O   O19       1.0  0.97682  0.77629  0.28619  1.0000
  O   O20       1.0  0.02319  0.72371  0.78618  1.0000
  O   O21       1.0  0.97279  0.21523  0.54394  1.0000
  O   O22       1.0  0.02721  0.28478  0.04395  1.0000
  O   O23       1.0  0.02720  0.78477  0.45606  1.0000
  O   O24       1.0  0.97280  0.71524  0.95605  1.0000
  O   O25       1.0  0.25938  0.49850  0.52763  1.0000
  O   O26       1.0  0.74063  0.00151  0.02762  1.0000
  O   O27       1.0  0.74061  0.50150  0.47238  1.0000
  O   O28       1.0  0.25939  0.99851  0.97238  1.0000
  O   O29       1.0  0.72120  0.50590  0.63496  1.0000
  O   O30       1.0  0.27879  0.99410  0.13496  1.0000
  O   O31       1.0  0.27879  0.49410  0.36504  1.0000
  O   O32       1.0  0.72122  0.00590  0.86504  1.0000
