data_image0
_chemical_formula_structural       CuH22C32N2O4F6
_chemical_formula_sum              "Cu1 H22 C32 N2 O4 F6"
_cell_length_a       8.48315
_cell_length_b       9.39308
_cell_length_c       9.79784
_cell_angle_alpha    65.8572
_cell_angle_beta     78.1001
_cell_angle_gamma    90.0963

_space_group_name_H-M_alt    "P 1"
_space_group_IT_number       1

loop_
  _space_group_symop_operation_xyz
  'x, y, z'

loop_
  _atom_site_type_symbol
  _atom_site_label
  _atom_site_symmetry_multiplicity
  _atom_site_fract_x
  _atom_site_fract_y
  _atom_site_fract_z
  _atom_site_occupancy
  Cu  Cu1       1.0  1.00000  1.00000  0.50001  1.0000
  H   H1        1.0  0.99124  0.49800  0.23611  1.0000
  H   H2        1.0  0.00877  0.50199  0.76389  1.0000
  H   H3        1.0  0.82542  0.61374  0.31024  1.0000
  H   H4        1.0  0.17459  0.38627  0.68975  1.0000
  H   H5        1.0  0.63132  0.75123  0.42327  1.0000
  H   H6        1.0  0.36869  0.24877  0.57673  1.0000
  H   H7        1.0  0.48735  0.62161  0.69875  1.0000
  H   H8        1.0  0.51265  0.37840  0.30125  1.0000
  H   H9        1.0  0.54229  0.35142  0.86070  1.0000
  H   H10       1.0  0.45771  0.64858  0.13930  1.0000
  H   H11       1.0  0.73684  0.21150  0.74648  1.0000
  H   H12       1.0  0.26316  0.78850  0.25351  1.0000
  H   H13       1.0  0.64049  0.11630  0.44336  1.0000
  H   H14       1.0  0.35950  0.88370  0.55664  1.0000
  H   H15       1.0  0.43993  0.11289  0.28838  1.0000
  H   H16       1.0  0.56007  0.88712  0.71161  1.0000
  H   H17       1.0  0.80510  0.93772  0.03342  1.0000
  H   H18       1.0  0.19490  0.06228  0.96658  1.0000
  H   H19       1.0  0.98564  0.94620  0.20084  1.0000
  H   H20       1.0  0.01435  0.05381  0.79916  1.0000
  H   H21       1.0  0.36980  0.05932  0.09451  1.0000
  H   H22       1.0  0.63019  0.94067  0.90549  1.0000
  C   C1        1.0  0.20475  0.38641  0.07817  1.0000
  C   C2        1.0  0.79526  0.61358  0.92184  1.0000
  C   C3        1.0  0.11237  0.29819  0.24661  1.0000
  C   C4        1.0  0.88763  0.70180  0.75339  1.0000
  C   C5        1.0  0.00070  0.37638  0.30810  1.0000
  C   C6        1.0  0.99930  0.62362  0.69190  1.0000
  C   C7        1.0  0.90430  0.30753  0.45978  1.0000
  C   C8        1.0  0.09570  0.69247  0.54022  1.0000
  C   C9        1.0  0.79484  0.40139  0.52139  1.0000
  C   C10       1.0  0.20516  0.59861  0.47861  1.0000
  C   C11       1.0  0.76556  0.55514  0.43138  1.0000
  C   C12       1.0  0.23445  0.44487  0.56862  1.0000
  C   C13       1.0  0.65560  0.63358  0.49518  1.0000
  C   C14       1.0  0.34440  0.36643  0.50482  1.0000
  C   C15       1.0  0.57456  0.56085  0.64928  1.0000
  C   C16       1.0  0.42544  0.43915  0.35072  1.0000
  C   C17       1.0  0.60473  0.40888  0.74038  1.0000
  C   C18       1.0  0.39527  0.59113  0.25962  1.0000
  C   C19       1.0  0.71355  0.33026  0.67690  1.0000
  C   C20       1.0  0.28645  0.66974  0.32310  1.0000
  C   C21       1.0  0.67190  0.07815  0.35051  1.0000
  C   C22       1.0  0.32809  0.92185  0.64949  1.0000
  C   C23       1.0  0.56084  0.07655  0.26440  1.0000
  C   C24       1.0  0.43915  0.92346  0.73559  1.0000
  C   C25       1.0  0.60523  0.02611  0.14607  1.0000
  C   C26       1.0  0.39477  0.97389  0.85393  1.0000
  C   C27       1.0  0.76271  0.97998  0.12158  1.0000
  C   C28       1.0  0.23729  0.02002  0.87842  1.0000
  C   C29       1.0  0.86425  0.98455  0.21451  1.0000
  C   C30       1.0  0.13574  0.01546  0.78549  1.0000
  C   C31       1.0  0.48735  0.02244  0.05840  1.0000
  C   C32       1.0  0.51265  0.97756  0.94159  1.0000
  N   N1        1.0  0.82091  0.03213  0.32798  1.0000
  N   N2        1.0  0.17909  0.96788  0.67202  1.0000
  O   O1        1.0  0.15053  0.15812  0.30736  1.0000
  O   O2        1.0  0.84947  0.84187  0.69265  1.0000
  O   O3        1.0  0.90209  0.16334  0.55206  1.0000
  O   O4        1.0  0.09791  0.83666  0.44795  1.0000
  F   F1        1.0  0.15621  0.31980  0.98989  1.0000
  F   F2        1.0  0.84380  0.68019  0.01012  1.0000
  F   F3        1.0  0.36709  0.37489  0.06342  1.0000
  F   F4        1.0  0.63291  0.62510  0.93659  1.0000
  F   F5        1.0  0.18359  0.54130  0.01259  1.0000
  F   F6        1.0  0.81641  0.45868  0.98742  1.0000
