data_image0
_chemical_formula_structural       Cu2Mo4P2H24C26N4O20
_chemical_formula_sum              "Cu2 Mo4 P2 H24 C26 N4 O20"
_cell_length_a       7.93552
_cell_length_b       10.5149
_cell_length_c       12.8114
_cell_angle_alpha    100.891
_cell_angle_beta     103.925
_cell_angle_gamma    110.541

_space_group_name_H-M_alt    "P 1"
_space_group_IT_number       1

loop_
  _space_group_symop_operation_xyz
  'x, y, z'

loop_
  _atom_site_type_symbol
  _atom_site_label
  _atom_site_symmetry_multiplicity
  _atom_site_fract_x
  _atom_site_fract_y
  _atom_site_fract_z
  _atom_site_occupancy
  Cu  Cu1       1.0  0.38072  0.83571  0.29453  1.0000
  Cu  Cu2       1.0  0.61928  0.16429  0.70547  1.0000
  Mo  Mo1       1.0  0.52095  0.53145  0.38078  1.0000
  Mo  Mo2       1.0  0.47906  0.46855  0.61922  1.0000
  Mo  Mo3       1.0  0.71794  0.81265  0.68432  1.0000
  Mo  Mo4       1.0  0.28206  0.18735  0.31568  1.0000
  P   P1        1.0  0.74810  0.03038  0.51984  1.0000
  P   P2        1.0  0.25190  0.96962  0.48016  1.0000
  H   H1        1.0  0.94383  0.67959  0.25949  1.0000
  H   H2        1.0  0.05616  0.32042  0.74050  1.0000
  H   H3        1.0  0.65143  0.56394  0.08771  1.0000
  H   H4        1.0  0.34856  0.43606  0.91229  1.0000
  H   H5        1.0  0.68638  0.54724  0.89519  1.0000
  H   H6        1.0  0.31362  0.45277  0.10481  1.0000
  H   H7        1.0  0.91341  0.59390  0.78119  1.0000
  H   H8        1.0  0.08658  0.40610  0.21881  1.0000
  H   H9        1.0  0.24430  0.70092  0.77821  1.0000
  H   H10       1.0  0.75570  0.29908  0.22179  1.0000
  H   H11       1.0  0.60234  0.84136  0.88990  1.0000
  H   H12       1.0  0.39766  0.15864  0.11010  1.0000
  H   H13       1.0  0.85930  0.96283  0.07942  1.0000
  H   H14       1.0  0.14069  0.03717  0.92058  1.0000
  H   H15       1.0  0.76915  0.96325  0.25319  1.0000
  H   H16       1.0  0.23085  0.03674  0.74680  1.0000
  H   H17       1.0  0.07591  0.10529  0.62021  1.0000
  H   H18       1.0  0.92408  0.89471  0.37979  1.0000
  H   H19       1.0  0.04228  0.15441  0.49495  1.0000
  H   H20       1.0  0.95773  0.84559  0.50506  1.0000
  H   H21       1.0  0.32112  0.71022  0.55949  1.0000
  H   H22       1.0  0.67888  0.28978  0.44051  1.0000
  H   H23       1.0  0.37507  0.86116  0.63445  1.0000
  H   H24       1.0  0.62493  0.13884  0.36555  1.0000
  C   C1        1.0  0.95421  0.67186  0.17532  1.0000
  C   C2        1.0  0.04579  0.32815  0.82468  1.0000
  C   C3        1.0  0.79108  0.60620  0.07763  1.0000
  C   C4        1.0  0.20892  0.39380  0.92237  1.0000
  C   C5        1.0  0.81000  0.59624  0.97218  1.0000
  C   C6        1.0  0.19000  0.40376  0.02782  1.0000
  C   C7        1.0  0.99460  0.65225  0.96348  1.0000
  C   C8        1.0  0.00539  0.34775  0.03651  1.0000
  C   C9        1.0  0.15002  0.71775  0.06589  1.0000
  C   C10       1.0  0.84997  0.28225  0.93411  1.0000
  C   C11       1.0  0.03370  0.64642  0.85952  1.0000
  C   C12       1.0  0.96629  0.35358  0.14047  1.0000
  C   C13       1.0  0.21646  0.70503  0.85792  1.0000
  C   C14       1.0  0.78354  0.29497  0.14208  1.0000
  C   C15       1.0  0.37538  0.77444  0.96094  1.0000
  C   C16       1.0  0.62462  0.22555  0.03906  1.0000
  C   C17       1.0  0.34022  0.77938  0.06442  1.0000
  C   C18       1.0  0.65977  0.22061  0.93557  1.0000
  C   C19       1.0  0.56767  0.84121  0.96705  1.0000
  C   C20       1.0  0.43232  0.15879  0.03295  1.0000
  C   C21       1.0  0.70971  0.90863  0.07129  1.0000
  C   C22       1.0  0.29029  0.09137  0.92871  1.0000
  C   C23       1.0  0.66163  0.90810  0.16994  1.0000
  C   C24       1.0  0.33837  0.09189  0.83005  1.0000
  C   C25       1.0  0.99133  0.06633  0.53007  1.0000
  C   C26       1.0  0.00867  0.93367  0.46993  1.0000
  N   N1        1.0  0.12853  0.72671  0.16876  1.0000
  N   N2        1.0  0.87147  0.27328  0.83124  1.0000
  N   N3        1.0  0.48179  0.84400  0.16606  1.0000
  N   N4        1.0  0.51822  0.15600  0.83394  1.0000
  O   O1        1.0  0.67436  0.89810  0.56148  1.0000
  O   O2        1.0  0.32565  0.10191  0.43852  1.0000
  O   O3        1.0  0.63122  0.98953  0.39395  1.0000
  O   O4        1.0  0.36878  0.01048  0.60605  1.0000
  O   O5        1.0  0.74450  0.16302  0.59156  1.0000
  O   O6        1.0  0.25549  0.83698  0.40843  1.0000
  O   O7        1.0  0.41689  0.63013  0.31726  1.0000
  O   O8        1.0  0.58313  0.36988  0.68274  1.0000
  O   O9        1.0  0.74614  0.58055  0.37263  1.0000
  O   O10       1.0  0.25387  0.41944  0.62738  1.0000
  O   O11       1.0  0.56446  0.62383  0.53690  1.0000
  O   O12       1.0  0.43554  0.37618  0.46310  1.0000
  O   O13       1.0  0.37658  0.34995  0.26333  1.0000
  O   O14       1.0  0.62341  0.65006  0.73667  1.0000
  O   O15       1.0  0.94458  0.82966  0.69436  1.0000
  O   O16       1.0  0.05542  0.17033  0.30564  1.0000
  O   O17       1.0  0.75083  0.95062  0.79543  1.0000
  O   O18       1.0  0.24917  0.04938  0.20457  1.0000
  O   O19       1.0  0.38144  0.76872  0.63835  1.0000
  O   O20       1.0  0.61856  0.23128  0.36165  1.0000
