data_image0
_chemical_formula_structural       H36Ru2C44N2O12
_chemical_formula_sum              "H36 Ru2 C44 N2 O12"
_cell_length_a       9.43706
_cell_length_b       10.5616
_cell_length_c       10.9343
_cell_angle_alpha    84.5712
_cell_angle_beta     87.1867
_cell_angle_gamma    82.1411

_space_group_name_H-M_alt    "P 1"
_space_group_IT_number       1

loop_
  _space_group_symop_operation_xyz
  'x, y, z'

loop_
  _atom_site_type_symbol
  _atom_site_label
  _atom_site_symmetry_multiplicity
  _atom_site_fract_x
  _atom_site_fract_y
  _atom_site_fract_z
  _atom_site_occupancy
  H   H1        1.0  0.76262  0.73840  0.04482  1.0000
  H   H2        1.0  0.23736  0.26160  0.95518  1.0000
  H   H3        1.0  0.69588  0.16511  0.17413  1.0000
  H   H4        1.0  0.30411  0.83486  0.82588  1.0000
  H   H5        1.0  0.65863  0.27501  0.79406  1.0000
  H   H6        1.0  0.34139  0.72499  0.20591  1.0000
  H   H7        1.0  0.27303  0.06552  0.32323  1.0000
  H   H8        1.0  0.72698  0.93448  0.67675  1.0000
  H   H9        1.0  0.67251  0.56952  0.93828  1.0000
  H   H10       1.0  0.32749  0.43047  0.06172  1.0000
  H   H11       1.0  0.55116  0.38017  0.17725  1.0000
  H   H12       1.0  0.44884  0.61981  0.82275  1.0000
  H   H13       1.0  0.93366  0.64098  0.68935  1.0000
  H   H14       1.0  0.06632  0.35904  0.31070  1.0000
  H   H15       1.0  0.55933  0.45992  0.64921  1.0000
  H   H16       1.0  0.44068  0.54008  0.35078  1.0000
  H   H17       1.0  0.87508  0.23864  0.59905  1.0000
  H   H18       1.0  0.12496  0.76136  0.40092  1.0000
  H   H19       1.0  0.32354  0.11360  0.53565  1.0000
  H   H20       1.0  0.67648  0.88642  0.46432  1.0000
  H   H21       1.0  0.20493  0.55367  0.90987  1.0000
  H   H22       1.0  0.79502  0.44636  0.09019  1.0000
  H   H23       1.0  0.15895  0.59621  0.75292  1.0000
  H   H24       1.0  0.84103  0.40383  0.24714  1.0000
  H   H25       1.0  0.03865  0.65195  0.87484  1.0000
  H   H26       1.0  0.96129  0.34806  0.12522  1.0000
  H   H27       1.0  0.70553  0.64029  0.59414  1.0000
  H   H28       1.0  0.29446  0.35973  0.40589  1.0000
  H   H29       1.0  0.58544  0.23683  0.40165  1.0000
  H   H30       1.0  0.41458  0.76317  0.59835  1.0000
  H   H31       1.0  0.67264  0.16768  0.53977  1.0000
  H   H32       1.0  0.32738  0.83232  0.46022  1.0000
  H   H33       1.0  0.69231  0.32918  0.48167  1.0000
  H   H34       1.0  0.30771  0.67082  0.51832  1.0000
  H   H35       1.0  0.12050  0.20187  0.67208  1.0000
  H   H36       1.0  0.87953  0.79814  0.32790  1.0000
  Ru  Ru1       1.0  0.88221  0.98267  0.02779  1.0000
  Ru  Ru2       1.0  0.11779  0.01733  0.97220  1.0000
  C   C1        1.0  0.90955  0.23099  0.89286  1.0000
  C   C2        1.0  0.09044  0.76900  0.10713  1.0000
  C   C3        1.0  0.02598  0.08020  0.21942  1.0000
  C   C4        1.0  0.97402  0.91979  0.78056  1.0000
  C   C5        1.0  0.58454  0.88386  0.99693  1.0000
  C   C6        1.0  0.41546  0.11613  0.00308  1.0000
  C   C7        1.0  0.55186  0.09089  0.06004  1.0000
  C   C8        1.0  0.44813  0.90909  0.93997  1.0000
  C   C9        1.0  0.85295  0.35079  0.82010  1.0000
  C   C10       1.0  0.14705  0.64921  0.17989  1.0000
  C   C11       1.0  0.04647  0.11706  0.34375  1.0000
  C   C12       1.0  0.95355  0.88294  0.65623  1.0000
  C   C13       1.0  0.66247  0.75870  0.99710  1.0000
  C   C14       1.0  0.33752  0.24129  0.00291  1.0000
  C   C15       1.0  0.59625  0.18743  0.12590  1.0000
  C   C16       1.0  0.40373  0.81255  0.87411  1.0000
  C   C17       1.0  0.93055  0.45677  0.79423  1.0000
  C   C18       1.0  0.06944  0.54323  0.20579  1.0000
  C   C19       1.0  0.71827  0.35561  0.76922  1.0000
  C   C20       1.0  0.28174  0.64438  0.23077  1.0000
  C   C21       1.0  0.93208  0.16648  0.42210  1.0000
  C   C22       1.0  0.06793  0.83353  0.57787  1.0000
  C   C23       1.0  0.18665  0.10141  0.38596  1.0000
  C   C24       1.0  0.81336  0.89860  0.61402  1.0000
  C   C25       1.0  0.61223  0.66528  0.93784  1.0000
  C   C26       1.0  0.38776  0.33472  0.06215  1.0000
  C   C27       1.0  0.51585  0.30638  0.12709  1.0000
  C   C28       1.0  0.48413  0.69360  0.87291  1.0000
  C   C29       1.0  0.87561  0.55929  0.71148  1.0000
  C   C30       1.0  0.12437  0.44073  0.28856  1.0000
  C   C31       1.0  0.66378  0.45832  0.68820  1.0000
  C   C32       1.0  0.33623  0.54168  0.31180  1.0000
  C   C33       1.0  0.96156  0.19858  0.53891  1.0000
  C   C34       1.0  0.03847  0.80144  0.46106  1.0000
  C   C35       1.0  0.21457  0.13012  0.50321  1.0000
  C   C36       1.0  0.78545  0.86990  0.49676  1.0000
  C   C37       1.0  0.11675  0.57189  0.84648  1.0000
  C   C38       1.0  0.88321  0.42813  0.15357  1.0000
  C   C39       1.0  0.74460  0.55893  0.65809  1.0000
  C   C40       1.0  0.25540  0.44108  0.34193  1.0000
  C   C41       1.0  0.68104  0.23286  0.45571  1.0000
  C   C42       1.0  0.31898  0.76714  0.54429  1.0000
  C   C43       1.0  0.10124  0.17933  0.57955  1.0000
  C   C44       1.0  0.89879  0.82069  0.42042  1.0000
  N   N1        1.0  0.63903  0.97732  0.05114  1.0000
  N   N2        1.0  0.36095  0.02267  0.94887  1.0000
  O   O1        1.0  0.81832  0.16315  0.94646  1.0000
  O   O2        1.0  0.18168  0.83685  0.05352  1.0000
  O   O3        1.0  0.90564  0.04674  0.19421  1.0000
  O   O4        1.0  0.09436  0.95326  0.80578  1.0000
  O   O5        1.0  0.95448  0.80361  0.10598  1.0000
  O   O6        1.0  0.04552  0.19639  0.89401  1.0000
  O   O7        1.0  0.86736  0.91859  0.85825  1.0000
  O   O8        1.0  0.13264  0.08140  0.14174  1.0000
  O   O9        1.0  0.05334  0.45524  0.85455  1.0000
  O   O10       1.0  0.94665  0.54477  0.14548  1.0000
  O   O11       1.0  0.79796  0.18506  0.37732  1.0000
  O   O12       1.0  0.20205  0.81493  0.62267  1.0000
