data_image0
_chemical_formula_structural       Mn2H22C30N2O10
_chemical_formula_sum              "Mn2 H22 C30 N2 O10"
_cell_length_a       7.67102
_cell_length_b       9.97354
_cell_length_c       12.5517
_cell_angle_alpha    104.002
_cell_angle_beta     91.5527
_cell_angle_gamma    109.962

_space_group_name_H-M_alt    "P 1"
_space_group_IT_number       1

loop_
  _space_group_symop_operation_xyz
  'x, y, z'

loop_
  _atom_site_type_symbol
  _atom_site_label
  _atom_site_symmetry_multiplicity
  _atom_site_fract_x
  _atom_site_fract_y
  _atom_site_fract_z
  _atom_site_occupancy
  Mn  Mn1       1.0  0.02032  0.72655  0.53980  1.0000
  Mn  Mn2       1.0  0.97967  0.27345  0.46020  1.0000
  H   H1        1.0  0.79998  0.91552  0.53776  1.0000
  H   H2        1.0  0.20001  0.08448  0.46224  1.0000
  H   H3        1.0  0.71864  0.79686  0.60762  1.0000
  H   H4        1.0  0.28135  0.20314  0.39239  1.0000
  H   H5        1.0  0.53413  0.18309  0.52605  1.0000
  H   H6        1.0  0.46587  0.81690  0.47395  1.0000
  H   H7        1.0  0.35790  0.12038  0.83776  1.0000
  H   H8        1.0  0.64211  0.87962  0.16225  1.0000
  H   H9        1.0  0.75936  0.53978  0.81891  1.0000
  H   H10       1.0  0.24063  0.46022  0.18109  1.0000
  H   H11       1.0  0.52030  0.31628  0.00807  1.0000
  H   H12       1.0  0.47970  0.68373  0.99193  1.0000
  H   H13       1.0  0.74758  0.61892  0.97778  1.0000
  H   H14       1.0  0.25241  0.38108  0.02222  1.0000
  H   H15       1.0  0.10982  0.84466  0.32679  1.0000
  H   H16       1.0  0.89019  0.15535  0.67320  1.0000
  H   H17       1.0  0.97927  0.78282  0.12999  1.0000
  H   H18       1.0  0.02074  0.21718  0.87001  1.0000
  H   H19       1.0  0.56960  0.38649  0.17939  1.0000
  H   H20       1.0  0.43042  0.61351  0.82060  1.0000
  H   H21       1.0  0.71914  0.46349  0.37202  1.0000
  H   H22       1.0  0.28088  0.53652  0.62798  1.0000
  C   C1        1.0  0.77754  0.46028  0.59892  1.0000
  C   C2        1.0  0.22245  0.53971  0.40107  1.0000
  C   C3        1.0  0.66266  0.36846  0.66761  1.0000
  C   C4        1.0  0.33734  0.63154  0.33239  1.0000
  C   C5        1.0  0.54147  0.22503  0.61506  1.0000
  C   C6        1.0  0.45854  0.77497  0.38495  1.0000
  C   C7        1.0  0.43208  0.13603  0.67672  1.0000
  C   C8        1.0  0.56792  0.86396  0.32329  1.0000
  C   C9        1.0  0.29134  0.98694  0.62061  1.0000
  C   C10       1.0  0.70866  0.01306  0.37938  1.0000
  C   C11       1.0  0.44571  0.19149  0.79127  1.0000
  C   C12       1.0  0.55430  0.80851  0.20874  1.0000
  C   C13       1.0  0.55895  0.33813  0.84475  1.0000
  C   C14       1.0  0.44105  0.66186  0.15525  1.0000
  C   C15       1.0  0.66886  0.42524  0.78187  1.0000
  C   C16       1.0  0.33114  0.57475  0.21814  1.0000
  C   C17       1.0  0.52931  0.39838  0.96181  1.0000
  C   C18       1.0  0.47070  0.60163  0.03819  1.0000
  C   C19       1.0  0.65344  0.55703  0.02768  1.0000
  C   C20       1.0  0.34655  0.44298  0.97232  1.0000
  C   C21       1.0  0.99013  0.74401  0.29048  1.0000
  C   C22       1.0  0.00988  0.25600  0.70951  1.0000
  C   C23       1.0  0.91673  0.70794  0.18040  1.0000
  C   C24       1.0  0.08327  0.29206  0.81960  1.0000
  C   C25       1.0  0.75863  0.58016  0.13668  1.0000
  C   C26       1.0  0.24137  0.41984  0.86331  1.0000
  C   C27       1.0  0.69042  0.48894  0.20674  1.0000
  C   C28       1.0  0.30958  0.51107  0.79326  1.0000
  C   C29       1.0  0.77107  0.53212  0.31572  1.0000
  C   C30       1.0  0.22895  0.46788  0.68428  1.0000
  N   N1        1.0  0.91619  0.65966  0.35890  1.0000
  N   N2        1.0  0.08382  0.34034  0.64110  1.0000
  O   O1        1.0  0.84702  0.60061  0.63809  1.0000
  O   O2        1.0  0.15295  0.39939  0.36190  1.0000
  O   O3        1.0  0.79859  0.39293  0.50240  1.0000
  O   O4        1.0  0.20141  0.60707  0.49760  1.0000
  O   O5        1.0  0.22318  0.96188  0.51989  1.0000
  O   O6        1.0  0.77683  0.03812  0.48010  1.0000
  O   O7        1.0  0.23799  0.88858  0.67291  1.0000
  O   O8        1.0  0.76200  0.11142  0.32710  1.0000
  O   O9        1.0  0.83190  0.85267  0.58177  1.0000
  O   O10       1.0  0.16810  0.14733  0.41824  1.0000
