data_image0
_chemical_formula_structural       Zn2H12C20N4Cl12
_chemical_formula_sum              "Zn2 H12 C20 N4 Cl12"
_cell_length_a       3.66442
_cell_length_b       13.7289
_cell_length_c       13.7289
_cell_angle_alpha    90
_cell_angle_beta     90
_cell_angle_gamma    90

_space_group_name_H-M_alt    "P 1"
_space_group_IT_number       1

loop_
  _space_group_symop_operation_xyz
  'x, y, z'

loop_
  _atom_site_type_symbol
  _atom_site_label
  _atom_site_symmetry_multiplicity
  _atom_site_fract_x
  _atom_site_fract_y
  _atom_site_fract_z
  _atom_site_occupancy
  Zn  Zn1       1.0  0.50000  0.00000  0.50000  1.0000
  Zn  Zn2       1.0  0.50000  0.50000  0.00000  1.0000
  H   H1        1.0  0.68197  0.21800  0.48461  1.0000
  H   H2        1.0  0.68197  0.78200  0.51539  1.0000
  H   H3        1.0  0.31803  0.48461  0.78200  1.0000
  H   H4        1.0  0.31803  0.51539  0.21800  1.0000
  H   H5        1.0  0.68197  0.71800  0.01539  1.0000
  H   H6        1.0  0.68197  0.28200  0.98461  1.0000
  H   H7        1.0  0.31803  0.98461  0.71800  1.0000
  H   H8        1.0  0.31803  0.01539  0.28200  1.0000
  H   H9        1.0  0.50000  0.31242  0.18758  1.0000
  H   H10       1.0  0.50000  0.68758  0.81242  1.0000
  H   H11       1.0  0.50000  0.18758  0.68758  1.0000
  H   H12       1.0  0.50000  0.81242  0.31242  1.0000
  C   C1        1.0  0.60122  0.20393  0.40963  1.0000
  C   C2        1.0  0.60122  0.79607  0.59037  1.0000
  C   C3        1.0  0.39878  0.40963  0.79607  1.0000
  C   C4        1.0  0.39878  0.59037  0.20393  1.0000
  C   C5        1.0  0.60122  0.70393  0.09037  1.0000
  C   C6        1.0  0.60122  0.29607  0.90963  1.0000
  C   C7        1.0  0.39878  0.90963  0.70393  1.0000
  C   C8        1.0  0.39878  0.09037  0.29607  1.0000
  C   C9        1.0  0.60802  0.27683  0.33882  1.0000
  C   C10       1.0  0.60802  0.72317  0.66118  1.0000
  C   C11       1.0  0.39198  0.33882  0.72317  1.0000
  C   C12       1.0  0.39198  0.66118  0.27683  1.0000
  C   C13       1.0  0.60802  0.77683  0.16118  1.0000
  C   C14       1.0  0.60802  0.22317  0.83882  1.0000
  C   C15       1.0  0.39198  0.83882  0.77683  1.0000
  C   C16       1.0  0.39198  0.16118  0.22317  1.0000
  C   C17       1.0  0.50000  0.25637  0.24363  1.0000
  C   C18       1.0  0.50000  0.74363  0.75637  1.0000
  C   C19       1.0  0.50000  0.24363  0.74363  1.0000
  C   C20       1.0  0.50000  0.75637  0.25637  1.0000
  N   N1        1.0  0.50000  0.11263  0.38737  1.0000
  N   N2        1.0  0.50000  0.88737  0.61263  1.0000
  N   N3        1.0  0.50000  0.38737  0.88737  1.0000
  N   N4        1.0  0.50000  0.61263  0.11263  1.0000
  Cl  Cl1       1.0  0.00000  0.91225  0.41225  1.0000
  Cl  Cl2       1.0  0.00000  0.08775  0.58775  1.0000
  Cl  Cl3       1.0  0.00000  0.41226  0.08774  1.0000
  Cl  Cl4       1.0  0.00000  0.58774  0.91226  1.0000
  Cl  Cl5       1.0  0.75196  0.39235  0.36983  1.0000
  Cl  Cl6       1.0  0.75196  0.60765  0.63017  1.0000
  Cl  Cl7       1.0  0.24804  0.36983  0.60765  1.0000
  Cl  Cl8       1.0  0.24804  0.63017  0.39235  1.0000
  Cl  Cl9       1.0  0.75196  0.89235  0.13017  1.0000
  Cl  Cl10      1.0  0.75196  0.10765  0.86983  1.0000
  Cl  Cl11      1.0  0.24804  0.86983  0.89235  1.0000
  Cl  Cl12      1.0  0.24804  0.13017  0.10765  1.0000
