data_image0
_chemical_formula_structural       Zn4H32C40N8Cl8
_chemical_formula_sum              "Zn4 H32 C40 N8 Cl8"
_cell_length_a       4.51688
_cell_length_b       12.5021
_cell_length_c       18.5966
_cell_angle_alpha    89.9994
_cell_angle_beta     90.0009
_cell_angle_gamma    90.0003

_space_group_name_H-M_alt    "P 1"
_space_group_IT_number       1

loop_
  _space_group_symop_operation_xyz
  'x, y, z'

loop_
  _atom_site_type_symbol
  _atom_site_label
  _atom_site_symmetry_multiplicity
  _atom_site_fract_x
  _atom_site_fract_y
  _atom_site_fract_z
  _atom_site_occupancy
  Zn  Zn1       1.0  0.94425  0.25000  0.39146  1.0000
  Zn  Zn2       1.0  0.44427  0.75001  0.10854  1.0000
  Zn  Zn3       1.0  0.55576  0.25000  0.89146  1.0000
  Zn  Zn4       1.0  0.05576  0.75001  0.60854  1.0000
  H   H1        1.0  0.70728  0.41507  0.29047  1.0000
  H   H2        1.0  0.20727  0.58493  0.20953  1.0000
  H   H3        1.0  0.79272  0.08493  0.79047  1.0000
  H   H4        1.0  0.29272  0.91507  0.70954  1.0000
  H   H5        1.0  0.29272  0.58493  0.70953  1.0000
  H   H6        1.0  0.79272  0.41508  0.79047  1.0000
  H   H7        1.0  0.20729  0.91508  0.20953  1.0000
  H   H8        1.0  0.70728  0.08492  0.29047  1.0000
  H   H9        1.0  0.40384  0.42346  0.18013  1.0000
  H   H10       1.0  0.90385  0.57654  0.31987  1.0000
  H   H11       1.0  0.09614  0.07655  0.68013  1.0000
  H   H12       1.0  0.59616  0.92345  0.81988  1.0000
  H   H13       1.0  0.59616  0.57654  0.81987  1.0000
  H   H14       1.0  0.09614  0.42345  0.68013  1.0000
  H   H15       1.0  0.90386  0.92344  0.31987  1.0000
  H   H16       1.0  0.40384  0.07655  0.18013  1.0000
  H   H17       1.0  0.12010  0.07627  0.09814  1.0000
  H   H18       1.0  0.62013  0.92374  0.40186  1.0000
  H   H19       1.0  0.37987  0.42374  0.59814  1.0000
  H   H20       1.0  0.87991  0.57626  0.90186  1.0000
  H   H21       1.0  0.87987  0.92373  0.90186  1.0000
  H   H22       1.0  0.37985  0.07626  0.59813  1.0000
  H   H23       1.0  0.62010  0.57626  0.40186  1.0000
  H   H24       1.0  0.12013  0.42375  0.09814  1.0000
  H   H25       1.0  0.79143  0.08442  0.99247  1.0000
  H   H26       1.0  0.29146  0.91558  0.50753  1.0000
  H   H27       1.0  0.70854  0.41558  0.49247  1.0000
  H   H28       1.0  0.20857  0.58442  0.00753  1.0000
  H   H29       1.0  0.20852  0.91558  0.00753  1.0000
  H   H30       1.0  0.70853  0.08442  0.49247  1.0000
  H   H31       1.0  0.29143  0.58442  0.50753  1.0000
  H   H32       1.0  0.79146  0.41559  0.99246  1.0000
  C   C1        1.0  0.62884  0.34238  0.26453  1.0000
  C   C2        1.0  0.12887  0.65762  0.23547  1.0000
  C   C3        1.0  0.87111  0.15762  0.76453  1.0000
  C   C4        1.0  0.37114  0.84237  0.73548  1.0000
  C   C5        1.0  0.37114  0.65761  0.73547  1.0000
  C   C6        1.0  0.87113  0.34238  0.76453  1.0000
  C   C7        1.0  0.12888  0.84238  0.23547  1.0000
  C   C8        1.0  0.62886  0.15762  0.26453  1.0000
  C   C9        1.0  0.45536  0.34564  0.20306  1.0000
  C   C10       1.0  0.95537  0.65436  0.29694  1.0000
  C   C11       1.0  0.04462  0.15437  0.70306  1.0000
  C   C12       1.0  0.54462  0.84563  0.79694  1.0000
  C   C13       1.0  0.54465  0.65435  0.79694  1.0000
  C   C14       1.0  0.04462  0.34563  0.70306  1.0000
  C   C15       1.0  0.95539  0.84562  0.29694  1.0000
  C   C16       1.0  0.45538  0.15437  0.20306  1.0000
  C   C17       1.0  0.35751  0.25000  0.17141  1.0000
  C   C18       1.0  0.85752  0.74999  0.32859  1.0000
  C   C19       1.0  0.14250  0.25000  0.67141  1.0000
  C   C20       1.0  0.64252  0.75000  0.82859  1.0000
  C   C21       1.0  0.16034  0.25001  0.10780  1.0000
  C   C22       1.0  0.66038  0.74999  0.39220  1.0000
  C   C23       1.0  0.33964  0.25000  0.60781  1.0000
  C   C24       1.0  0.83967  0.74999  0.89220  1.0000
  C   C25       1.0  0.05925  0.15426  0.07687  1.0000
  C   C26       1.0  0.55928  0.84575  0.42313  1.0000
  C   C27       1.0  0.44072  0.34575  0.57687  1.0000
  C   C28       1.0  0.94080  0.65424  0.92313  1.0000
  C   C29       1.0  0.94074  0.84575  0.92313  1.0000
  C   C30       1.0  0.44073  0.15426  0.57687  1.0000
  C   C31       1.0  0.55925  0.65425  0.42313  1.0000
  C   C32       1.0  0.05925  0.34576  0.07687  1.0000
  C   C33       1.0  0.87591  0.15737  0.01705  1.0000
  C   C34       1.0  0.37591  0.84263  0.48294  1.0000
  C   C35       1.0  0.62407  0.34263  0.51706  1.0000
  C   C36       1.0  0.12412  0.65737  0.98295  1.0000
  C   C37       1.0  0.12409  0.84263  0.98295  1.0000
  C   C38       1.0  0.62409  0.15737  0.51705  1.0000
  C   C39       1.0  0.37591  0.65737  0.48295  1.0000
  C   C40       1.0  0.87591  0.34263  0.01705  1.0000
  N   N1        1.0  0.71157  0.25000  0.29580  1.0000
  N   N2        1.0  0.21161  0.75000  0.20419  1.0000
  N   N3        1.0  0.78837  0.25000  0.79581  1.0000
  N   N4        1.0  0.28842  0.75000  0.70420  1.0000
  N   N5        1.0  0.78869  0.25000  0.98668  1.0000
  N   N6        1.0  0.28869  0.75000  0.51332  1.0000
  N   N7        1.0  0.71129  0.25000  0.48667  1.0000
  N   N8        1.0  0.21131  0.75000  0.01333  1.0000
  Cl  Cl1       1.0  0.15530  0.41345  0.39048  1.0000
  Cl  Cl2       1.0  0.65533  0.58656  0.10953  1.0000
  Cl  Cl3       1.0  0.34467  0.08655  0.89047  1.0000
  Cl  Cl4       1.0  0.84468  0.91345  0.60953  1.0000
  Cl  Cl5       1.0  0.84468  0.58656  0.60953  1.0000
  Cl  Cl6       1.0  0.34468  0.41345  0.89047  1.0000
  Cl  Cl7       1.0  0.65533  0.91346  0.10953  1.0000
  Cl  Cl8       1.0  0.15532  0.08655  0.39047  1.0000
