data_image0
_chemical_formula_structural       Zn2H16C20N4Cl4
_chemical_formula_sum              "Zn2 H16 C20 N4 Cl4"
_cell_length_a       4.52963
_cell_length_b       8.42254
_cell_length_c       14.8982
_cell_angle_alpha    73.5617
_cell_angle_beta     81.1724
_cell_angle_gamma    74.5652

_space_group_name_H-M_alt    "P 1"
_space_group_IT_number       1

loop_
  _space_group_symop_operation_xyz
  'x, y, z'

loop_
  _atom_site_type_symbol
  _atom_site_label
  _atom_site_symmetry_multiplicity
  _atom_site_fract_x
  _atom_site_fract_y
  _atom_site_fract_z
  _atom_site_occupancy
  Zn  Zn1       1.0  0.79896  0.85647  0.65061  1.0000
  Zn  Zn2       1.0  0.69367  0.35525  0.15116  1.0000
  H   H1        1.0  0.20125  0.51836  0.64078  1.0000
  H   H2        1.0  0.63954  0.01665  0.14042  1.0000
  H   H3        1.0  0.62330  0.39605  0.53635  1.0000
  H   H4        1.0  0.44594  0.89476  0.03542  1.0000
  H   H5        1.0  0.49811  0.90058  0.34532  1.0000
  H   H6        1.0  0.25575  0.40076  0.84622  1.0000
  H   H7        1.0  0.07066  0.99645  0.45618  1.0000
  H   H8        1.0  0.47707  0.49613  0.95713  1.0000
  H   H9        1.0  0.42026  0.21591  0.34559  1.0000
  H   H10       1.0  0.01253  0.71673  0.84521  1.0000
  H   H11       1.0  0.99223  0.31214  0.45614  1.0000
  H   H12       1.0  0.23365  0.81232  0.95609  1.0000
  H   H13       1.0  0.86457  0.81573  0.26408  1.0000
  H   H14       1.0  0.06099  0.31577  0.76394  1.0000
  H   H15       1.0  0.28871  0.69332  0.16024  1.0000
  H   H16       1.0  0.86356  0.19410  0.65965  1.0000
  C   C1        1.0  0.27827  0.59778  0.57473  1.0000
  C   C2        1.0  0.54940  0.09651  0.07460  1.0000
  C   C3        1.0  0.51768  0.53164  0.51590  1.0000
  C   C4        1.0  0.43520  0.03063  0.01558  1.0000
  C   C5        1.0  0.61331  0.63870  0.43187  1.0000
  C   C6        1.0  0.31635  0.13824  0.93194  1.0000
  C   C7        1.0  0.44627  0.80914  0.40996  1.0000
  C   C8        1.0  0.33456  0.30895  0.91055  1.0000
  C   C9        1.0  0.20655  0.86566  0.47200  1.0000
  C   C10       1.0  0.45629  0.36510  0.97263  1.0000
  C   C11       1.0  0.28413  0.34663  0.32953  1.0000
  C   C12       1.0  0.03657  0.84726  0.82917  1.0000
  C   C13       1.0  0.04392  0.40336  0.39138  1.0000
  C   C14       1.0  0.15852  0.90351  0.89117  1.0000
  C   C15       1.0  0.87590  0.57357  0.36912  1.0000
  C   C16       1.0  0.18162  0.07352  0.86900  1.0000
  C   C17       1.0  0.97121  0.68032  0.28492  1.0000
  C   C18       1.0  0.06671  0.18047  0.78469  1.0000
  C   C19       1.0  0.21151  0.61408  0.22632  1.0000
  C   C20       1.0  0.95099  0.11469  0.72590  1.0000
  N   N1        1.0  0.12668  0.76278  0.55425  1.0000
  N   N2        1.0  0.55677  0.26173  0.05457  1.0000
  N   N3        1.0  0.36426  0.44926  0.24719  1.0000
  N   N4        1.0  0.93864  0.95009  0.74679  1.0000
  Cl  Cl1       1.0  0.51597  0.09231  0.55982  1.0000
  Cl  Cl2       1.0  0.83552  0.59132  0.06071  1.0000
  Cl  Cl3       1.0  0.65723  0.62038  0.74087  1.0000
  Cl  Cl4       1.0  0.97843  0.11944  0.24131  1.0000
