data_image0
_chemical_formula_structural       Zn2H16C20Br4N4
_chemical_formula_sum              "Zn2 H16 C20 Br4 N4"
_cell_length_a       4.93631
_cell_length_b       8.5278
_cell_length_c       14.6148
_cell_angle_alpha    76.7254
_cell_angle_beta     80.2293
_cell_angle_gamma    73.1824

_space_group_name_H-M_alt    "P 1"
_space_group_IT_number       1

loop_
  _space_group_symop_operation_xyz
  'x, y, z'

loop_
  _atom_site_type_symbol
  _atom_site_label
  _atom_site_symmetry_multiplicity
  _atom_site_fract_x
  _atom_site_fract_y
  _atom_site_fract_z
  _atom_site_occupancy
  Zn  Zn1       1.0  0.43873  0.24979  0.74986  1.0000
  Zn  Zn2       1.0  0.56126  0.75021  0.25014  1.0000
  H   H1        1.0  0.36646  0.91946  0.73827  1.0000
  H   H2        1.0  0.02762  0.57988  0.76216  1.0000
  H   H3        1.0  0.63353  0.08054  0.26173  1.0000
  H   H4        1.0  0.97237  0.42011  0.23784  1.0000
  H   H5        1.0  0.16618  0.80046  0.63552  1.0000
  H   H6        1.0  0.60571  0.69983  0.86511  1.0000
  H   H7        1.0  0.83382  0.19953  0.36448  1.0000
  H   H8        1.0  0.39428  0.30018  0.13488  1.0000
  H   H9        1.0  0.02536  0.28308  0.44598  1.0000
  H   H10       1.0  0.75149  0.21620  0.05369  1.0000
  H   H11       1.0  0.97466  0.71692  0.55401  1.0000
  H   H12       1.0  0.24851  0.78381  0.94632  1.0000
  H   H13       1.0  0.24185  0.37799  0.55625  1.0000
  H   H14       1.0  0.17392  0.12098  0.94381  1.0000
  H   H15       1.0  0.75816  0.62201  0.44375  1.0000
  H   H16       1.0  0.82609  0.87903  0.05620  1.0000
  C   C1        1.0  0.28574  0.99542  0.67295  1.0000
  C   C2        1.0  0.95607  0.50409  0.82741  1.0000
  C   C3        1.0  0.71426  0.00457  0.32704  1.0000
  C   C4        1.0  0.04393  0.49591  0.17259  1.0000
  C   C5        1.0  0.17044  0.93068  0.61460  1.0000
  C   C6        1.0  0.71778  0.56931  0.88578  1.0000
  C   C7        1.0  0.82958  0.06931  0.38540  1.0000
  C   C8        1.0  0.28221  0.43070  0.11422  1.0000
  C   C9        1.0  0.06640  0.03198  0.53113  1.0000
  C   C10       1.0  0.62973  0.46789  0.96894  1.0000
  C   C11       1.0  0.93361  0.96802  0.46887  1.0000
  C   C12       1.0  0.37026  0.53211  0.03106  1.0000
  C   C13       1.0  0.09596  0.19589  0.50970  1.0000
  C   C14       1.0  0.80022  0.30356  0.99019  1.0000
  C   C15       1.0  0.90405  0.80410  0.49030  1.0000
  C   C16       1.0  0.19978  0.69645  0.00981  1.0000
  C   C17       1.0  0.21467  0.25187  0.57149  1.0000
  C   C18       1.0  0.03703  0.24727  0.92852  1.0000
  C   C19       1.0  0.78533  0.74813  0.42851  1.0000
  C   C20       1.0  0.96297  0.75274  0.07149  1.0000
  Br  Br1       1.0  0.72145  0.00878  0.84291  1.0000
  Br  Br2       1.0  0.57248  0.49120  0.65663  1.0000
  Br  Br3       1.0  0.27855  0.99123  0.15709  1.0000
  Br  Br4       1.0  0.42753  0.50879  0.34337  1.0000
  N   N1        1.0  0.30533  0.15420  0.65279  1.0000
  N   N2        1.0  0.11274  0.34491  0.84738  1.0000
  N   N3        1.0  0.69467  0.84579  0.34721  1.0000
  N   N4        1.0  0.88726  0.65510  0.15263  1.0000
