data_image0
_chemical_formula_structural       Zn4H32C40Br8N8
_chemical_formula_sum              "Zn4 H32 C40 Br8 N8"
_cell_length_a       4.9523
_cell_length_b       12.9223
_cell_length_c       17.7933
_cell_angle_alpha    90
_cell_angle_beta     90
_cell_angle_gamma    90

_space_group_name_H-M_alt    "P 1"
_space_group_IT_number       1

loop_
  _space_group_symop_operation_xyz
  'x, y, z'

loop_
  _atom_site_type_symbol
  _atom_site_label
  _atom_site_symmetry_multiplicity
  _atom_site_fract_x
  _atom_site_fract_y
  _atom_site_fract_z
  _atom_site_occupancy
  Zn  Zn1       1.0  0.93983  0.25000  0.39018  1.0000
  Zn  Zn2       1.0  0.43983  0.75000  0.10982  1.0000
  Zn  Zn3       1.0  0.06017  0.75000  0.60982  1.0000
  Zn  Zn4       1.0  0.56018  0.25000  0.89018  1.0000
  H   H1        1.0  0.70231  0.41008  0.28763  1.0000
  H   H2        1.0  0.20232  0.58992  0.21238  1.0000
  H   H3        1.0  0.29768  0.91008  0.71237  1.0000
  H   H4        1.0  0.79769  0.08992  0.78762  1.0000
  H   H5        1.0  0.29769  0.58992  0.71237  1.0000
  H   H6        1.0  0.79769  0.41008  0.78762  1.0000
  H   H7        1.0  0.70231  0.08991  0.28763  1.0000
  H   H8        1.0  0.20231  0.91008  0.21237  1.0000
  H   H9        1.0  0.39135  0.41787  0.17991  1.0000
  H   H10       1.0  0.89135  0.58212  0.32009  1.0000
  H   H11       1.0  0.60864  0.91788  0.82009  1.0000
  H   H12       1.0  0.10865  0.08212  0.67991  1.0000
  H   H13       1.0  0.60865  0.58212  0.82009  1.0000
  H   H14       1.0  0.10865  0.41788  0.67991  1.0000
  H   H15       1.0  0.39135  0.08212  0.17991  1.0000
  H   H16       1.0  0.89135  0.91787  0.32009  1.0000
  H   H17       1.0  0.11219  0.41805  0.09915  1.0000
  H   H18       1.0  0.61219  0.58195  0.40085  1.0000
  H   H19       1.0  0.88781  0.91805  0.90085  1.0000
  H   H20       1.0  0.38780  0.08195  0.59915  1.0000
  H   H21       1.0  0.88781  0.58195  0.90085  1.0000
  H   H22       1.0  0.38781  0.41805  0.59915  1.0000
  H   H23       1.0  0.11219  0.08195  0.09915  1.0000
  H   H24       1.0  0.61219  0.91805  0.40085  1.0000
  H   H25       1.0  0.79327  0.41037  0.99321  1.0000
  H   H26       1.0  0.29326  0.58963  0.50679  1.0000
  H   H27       1.0  0.20673  0.91037  0.00679  1.0000
  H   H28       1.0  0.70673  0.08963  0.49321  1.0000
  H   H29       1.0  0.20673  0.58963  0.00679  1.0000
  H   H30       1.0  0.70674  0.41037  0.49321  1.0000
  H   H31       1.0  0.79326  0.08963  0.99321  1.0000
  H   H32       1.0  0.29326  0.91037  0.50679  1.0000
  C   C1        1.0  0.62385  0.33940  0.26241  1.0000
  C   C2        1.0  0.12386  0.66060  0.23759  1.0000
  C   C3        1.0  0.37615  0.83940  0.73759  1.0000
  C   C4        1.0  0.87615  0.16060  0.76241  1.0000
  C   C5        1.0  0.37615  0.66060  0.73759  1.0000
  C   C6        1.0  0.87615  0.33940  0.76241  1.0000
  C   C7        1.0  0.62385  0.16060  0.26241  1.0000
  C   C8        1.0  0.12385  0.83940  0.23759  1.0000
  C   C9        1.0  0.44688  0.34243  0.20210  1.0000
  C   C10       1.0  0.94687  0.65757  0.29790  1.0000
  C   C11       1.0  0.55313  0.84243  0.79790  1.0000
  C   C12       1.0  0.05313  0.15757  0.70210  1.0000
  C   C13       1.0  0.55313  0.65757  0.79790  1.0000
  C   C14       1.0  0.05313  0.34243  0.70210  1.0000
  C   C15       1.0  0.44687  0.15757  0.20210  1.0000
  C   C16       1.0  0.94687  0.84243  0.29790  1.0000
  C   C17       1.0  0.34815  0.25000  0.17113  1.0000
  C   C18       1.0  0.84814  0.75000  0.32887  1.0000
  C   C19       1.0  0.65186  0.75000  0.82887  1.0000
  C   C20       1.0  0.15186  0.25000  0.67113  1.0000
  C   C21       1.0  0.15017  0.25000  0.10890  1.0000
  C   C22       1.0  0.65016  0.75000  0.39110  1.0000
  C   C23       1.0  0.84983  0.75000  0.89110  1.0000
  C   C24       1.0  0.34984  0.25000  0.60890  1.0000
  C   C25       1.0  0.05114  0.34256  0.07804  1.0000
  C   C26       1.0  0.55114  0.65744  0.42196  1.0000
  C   C27       1.0  0.94885  0.84256  0.92196  1.0000
  C   C28       1.0  0.44886  0.15744  0.57804  1.0000
  C   C29       1.0  0.94886  0.65744  0.92196  1.0000
  C   C30       1.0  0.44886  0.34255  0.57804  1.0000
  C   C31       1.0  0.05114  0.15745  0.07804  1.0000
  C   C32       1.0  0.55114  0.84256  0.42196  1.0000
  C   C33       1.0  0.87309  0.33956  0.01793  1.0000
  C   C34       1.0  0.37308  0.66044  0.48207  1.0000
  C   C35       1.0  0.12691  0.83956  0.98207  1.0000
  C   C36       1.0  0.62692  0.16044  0.51793  1.0000
  C   C37       1.0  0.12691  0.66044  0.98207  1.0000
  C   C38       1.0  0.62692  0.33956  0.51793  1.0000
  C   C39       1.0  0.87309  0.16044  0.01793  1.0000
  C   C40       1.0  0.37308  0.83956  0.48207  1.0000
  Br  Br1       1.0  0.14837  0.41671  0.38961  1.0000
  Br  Br2       1.0  0.64840  0.58330  0.11039  1.0000
  Br  Br3       1.0  0.85163  0.91671  0.61039  1.0000
  Br  Br4       1.0  0.35161  0.08330  0.88961  1.0000
  Br  Br5       1.0  0.85163  0.58329  0.61039  1.0000
  Br  Br6       1.0  0.35161  0.41670  0.88961  1.0000
  Br  Br7       1.0  0.14839  0.08330  0.38961  1.0000
  Br  Br8       1.0  0.64839  0.91670  0.11039  1.0000
  N   N1        1.0  0.70913  0.25000  0.29325  1.0000
  N   N2        1.0  0.20913  0.75000  0.20675  1.0000
  N   N3        1.0  0.29087  0.75000  0.70675  1.0000
  N   N4        1.0  0.79088  0.25000  0.79325  1.0000
  N   N5        1.0  0.78765  0.25000  0.98730  1.0000
  N   N6        1.0  0.28764  0.75000  0.51270  1.0000
  N   N7        1.0  0.21235  0.75000  0.01270  1.0000
  N   N8        1.0  0.71236  0.25000  0.48730  1.0000
