data_image0
_chemical_formula_structural       Mg4H24C20N8O24
_chemical_formula_sum              "Mg4 H24 C20 N8 O24"
_cell_length_a       6.03388
_cell_length_b       6.27878
_cell_length_c       19.7662
_cell_angle_alpha    92.2623
_cell_angle_beta     90.0001
_cell_angle_gamma    89.9998

_space_group_name_H-M_alt    "P 1"
_space_group_IT_number       1

loop_
  _space_group_symop_operation_xyz
  'x, y, z'

loop_
  _atom_site_type_symbol
  _atom_site_label
  _atom_site_symmetry_multiplicity
  _atom_site_fract_x
  _atom_site_fract_y
  _atom_site_fract_z
  _atom_site_occupancy
  Mg  Mg1       1.0  0.15803  0.57592  0.79929  1.0000
  Mg  Mg2       1.0  0.65802  0.42408  0.70071  1.0000
  Mg  Mg3       1.0  0.84197  0.42408  0.20071  1.0000
  Mg  Mg4       1.0  0.34197  0.57592  0.29929  1.0000
  H   H1        1.0  0.71989  0.69750  0.99813  1.0000
  H   H2        1.0  0.21989  0.30250  0.50188  1.0000
  H   H3        1.0  0.28011  0.30250  0.00187  1.0000
  H   H4        1.0  0.78011  0.69750  0.49812  1.0000
  H   H5        1.0  0.14530  0.87616  0.70445  1.0000
  H   H6        1.0  0.64530  0.12384  0.79555  1.0000
  H   H7        1.0  0.85470  0.12384  0.29555  1.0000
  H   H8        1.0  0.35470  0.87616  0.20445  1.0000
  H   H9        1.0  0.17168  0.00982  0.77565  1.0000
  H   H10       1.0  0.67167  0.99018  0.72435  1.0000
  H   H11       1.0  0.82833  0.99018  0.22435  1.0000
  H   H12       1.0  0.32833  0.00982  0.27565  1.0000
  H   H13       1.0  0.06413  0.20473  0.86343  1.0000
  H   H14       1.0  0.56412  0.79527  0.63657  1.0000
  H   H15       1.0  0.93587  0.79527  0.13657  1.0000
  H   H16       1.0  0.43588  0.20473  0.36343  1.0000
  H   H17       1.0  0.32468  0.22908  0.85610  1.0000
  H   H18       1.0  0.82468  0.77092  0.64389  1.0000
  H   H19       1.0  0.67532  0.77092  0.14389  1.0000
  H   H20       1.0  0.17533  0.22908  0.35611  1.0000
  H   H21       1.0  0.05779  0.85076  0.95066  1.0000
  H   H22       1.0  0.55779  0.14924  0.54934  1.0000
  H   H23       1.0  0.94221  0.14924  0.04934  1.0000
  H   H24       1.0  0.44220  0.85076  0.45066  1.0000
  C   C1        1.0  0.51480  0.67560  0.90325  1.0000
  C   C2        1.0  0.01479  0.32440  0.59675  1.0000
  C   C3        1.0  0.48521  0.32440  0.09675  1.0000
  C   C4        1.0  0.98520  0.67560  0.40325  1.0000
  C   C5        1.0  0.56339  0.71637  0.97216  1.0000
  C   C6        1.0  0.06338  0.28363  0.52784  1.0000
  C   C7        1.0  0.43661  0.28363  0.02784  1.0000
  C   C8        1.0  0.93660  0.71636  0.47216  1.0000
  C   C9        1.0  0.36271  0.78339  0.00105  1.0000
  C   C10       1.0  0.86271  0.21661  0.49895  1.0000
  C   C11       1.0  0.63729  0.21660  0.99895  1.0000
  C   C12       1.0  0.13729  0.78339  0.50105  1.0000
  C   C13       1.0  0.64700  0.60363  0.84346  1.0000
  C   C14       1.0  0.14698  0.39637  0.65654  1.0000
  C   C15       1.0  0.35300  0.39636  0.15654  1.0000
  C   C16       1.0  0.85302  0.60364  0.34346  1.0000
  C   C17       1.0  0.28783  0.84363  0.07087  1.0000
  C   C18       1.0  0.78784  0.15636  0.42913  1.0000
  C   C19       1.0  0.71217  0.15637  0.92913  1.0000
  C   C20       1.0  0.21216  0.84363  0.57087  1.0000
  N   N1        1.0  0.29853  0.71433  0.89119  1.0000
  N   N2        1.0  0.79852  0.28567  0.60881  1.0000
  N   N3        1.0  0.70148  0.28567  0.10881  1.0000
  N   N4        1.0  0.20148  0.71434  0.39120  1.0000
  N   N5        1.0  0.21101  0.77859  0.95006  1.0000
  N   N6        1.0  0.71100  0.22141  0.54993  1.0000
  N   N7        1.0  0.78899  0.22141  0.04994  1.0000
  N   N8        1.0  0.28899  0.77859  0.45007  1.0000
  O   O1        1.0  0.53150  0.55058  0.79043  1.0000
  O   O2        1.0  0.03148  0.44942  0.70957  1.0000
  O   O3        1.0  0.46851  0.44942  0.20957  1.0000
  O   O4        1.0  0.96852  0.55058  0.29043  1.0000
  O   O5        1.0  0.85487  0.60105  0.84706  1.0000
  O   O6        1.0  0.35486  0.39896  0.65295  1.0000
  O   O7        1.0  0.14513  0.39893  0.15295  1.0000
  O   O8        1.0  0.64513  0.60106  0.34705  1.0000
  O   O9        1.0  0.16338  0.86533  0.75422  1.0000
  O   O10       1.0  0.66338  0.13467  0.74578  1.0000
  O   O11       1.0  0.83662  0.13467  0.24578  1.0000
  O   O12       1.0  0.33662  0.86533  0.25422  1.0000
  O   O13       1.0  0.18211  0.25884  0.83247  1.0000
  O   O14       1.0  0.68210  0.74116  0.66753  1.0000
  O   O15       1.0  0.81789  0.74115  0.16753  1.0000
  O   O16       1.0  0.31790  0.25885  0.33247  1.0000
  O   O17       1.0  0.42380  0.83417  0.11950  1.0000
  O   O18       1.0  0.92381  0.16583  0.38050  1.0000
  O   O19       1.0  0.57621  0.16583  0.88050  1.0000
  O   O20       1.0  0.07619  0.83418  0.61950  1.0000
  O   O21       1.0  0.08509  0.89780  0.07638  1.0000
  O   O22       1.0  0.58511  0.10220  0.42362  1.0000
  O   O23       1.0  0.91491  0.10221  0.92362  1.0000
  O   O24       1.0  0.41490  0.89780  0.57638  1.0000
