data_image0
_chemical_formula_structural       Na2H20C10Cl2O10
_chemical_formula_sum              "Na2 H20 C10 Cl2 O10"
_cell_length_a       5.98245
_cell_length_b       6.88572
_cell_length_c       9.81678
_cell_angle_alpha    106.811
_cell_angle_beta     90
_cell_angle_gamma    90.0001

_space_group_name_H-M_alt    "P 1"
_space_group_IT_number       1

loop_
  _space_group_symop_operation_xyz
  'x, y, z'

loop_
  _atom_site_type_symbol
  _atom_site_label
  _atom_site_symmetry_multiplicity
  _atom_site_fract_x
  _atom_site_fract_y
  _atom_site_fract_z
  _atom_site_occupancy
  Na  Na1       1.0  0.20328  0.07045  0.92927  1.0000
  Na  Na2       1.0  0.70327  0.92955  0.07073  1.0000
  H   H1        1.0  0.59275  0.71445  0.29602  1.0000
  H   H2        1.0  0.09275  0.28555  0.70398  1.0000
  H   H3        1.0  0.34292  0.03088  0.48705  1.0000
  H   H4        1.0  0.84292  0.96913  0.51295  1.0000
  H   H5        1.0  0.27346  0.70217  0.09643  1.0000
  H   H6        1.0  0.77347  0.29783  0.90357  1.0000
  H   H7        1.0  0.09561  0.85927  0.28735  1.0000
  H   H8        1.0  0.59561  0.14073  0.71265  1.0000
  H   H9        1.0  0.95841  0.28695  0.16263  1.0000
  H   H10       1.0  0.45841  0.71305  0.83737  1.0000
  H   H11       1.0  0.08089  0.22137  0.37460  1.0000
  H   H12       1.0  0.58089  0.77863  0.62540  1.0000
  H   H13       1.0  0.55675  0.34960  0.11803  1.0000
  H   H14       1.0  0.05675  0.65040  0.88197  1.0000
  H   H15       1.0  0.29791  0.45700  0.28973  1.0000
  H   H16       1.0  0.79790  0.54300  0.71027  1.0000
  H   H17       1.0  0.67977  0.37708  0.37194  1.0000
  H   H18       1.0  0.17977  0.62292  0.62806  1.0000
  H   H19       1.0  0.45680  0.35095  0.48694  1.0000
  H   H20       1.0  0.95679  0.64906  0.51306  1.0000
  C   C1        1.0  0.41783  0.96052  0.38180  1.0000
  C   C2        1.0  0.91783  0.03948  0.61820  1.0000
  C   C3        1.0  0.23991  0.94495  0.26574  1.0000
  C   C4        1.0  0.73992  0.05505  0.73426  1.0000
  C   C5        1.0  0.16418  0.15933  0.27062  1.0000
  C   C6        1.0  0.66418  0.84067  0.72938  1.0000
  C   C7        1.0  0.36000  0.30002  0.26621  1.0000
  C   C8        1.0  0.85999  0.69998  0.73379  1.0000
  C   C9        1.0  0.53022  0.28881  0.37964  1.0000
  C   C10       1.0  0.03022  0.71119  0.62036  1.0000
  Cl  Cl1       1.0  0.33109  0.44004  0.85798  1.0000
  Cl  Cl2       1.0  0.83108  0.55996  0.14203  1.0000
  O   O1        1.0  0.50395  0.77362  0.38393  1.0000
  O   O2        1.0  0.00396  0.22639  0.61607  1.0000
  O   O3        1.0  0.33103  0.84105  0.12864  1.0000
  O   O4        1.0  0.83103  0.15895  0.87136  1.0000
  O   O5        1.0  0.00980  0.14719  0.15697  1.0000
  O   O6        1.0  0.50980  0.85281  0.84303  1.0000
  O   O7        1.0  0.45785  0.23831  0.12642  1.0000
  O   O8        1.0  0.95785  0.76169  0.87358  1.0000
  O   O9        1.0  0.60164  0.08359  0.35921  1.0000
  O   O10       1.0  0.10164  0.91641  0.64079  1.0000
