data_image0
_chemical_formula_structural       Cs4H20C16N16O16
_chemical_formula_sum              "Cs4 H20 C16 N16 O16"
_cell_length_a       6.88939
_cell_length_b       9.35715
_cell_length_c       13.7813
_cell_angle_alpha    101.915
_cell_angle_beta     89.9999
_cell_angle_gamma    90.0001

_space_group_name_H-M_alt    "P 1"
_space_group_IT_number       1

loop_
  _space_group_symop_operation_xyz
  'x, y, z'

loop_
  _atom_site_type_symbol
  _atom_site_label
  _atom_site_symmetry_multiplicity
  _atom_site_fract_x
  _atom_site_fract_y
  _atom_site_fract_z
  _atom_site_occupancy
  Cs  Cs1       1.0  0.98773  0.85509  0.36245  1.0000
  Cs  Cs2       1.0  0.48773  0.14491  0.13755  1.0000
  Cs  Cs3       1.0  0.01227  0.14491  0.63755  1.0000
  Cs  Cs4       1.0  0.51227  0.85509  0.86245  1.0000
  H   H1        1.0  0.62647  0.44503  0.36018  1.0000
  H   H2        1.0  0.12647  0.55497  0.13982  1.0000
  H   H3        1.0  0.37353  0.55497  0.63982  1.0000
  H   H4        1.0  0.87353  0.44503  0.86018  1.0000
  H   H5        1.0  0.07111  0.19259  0.28655  1.0000
  H   H6        1.0  0.57111  0.80741  0.21345  1.0000
  H   H7        1.0  0.92889  0.80741  0.71344  1.0000
  H   H8        1.0  0.42889  0.19259  0.78655  1.0000
  H   H9        1.0  0.17770  0.30480  0.39421  1.0000
  H   H10       1.0  0.67770  0.69520  0.10579  1.0000
  H   H11       1.0  0.82230  0.69519  0.60579  1.0000
  H   H12       1.0  0.32230  0.30480  0.89421  1.0000
  H   H13       1.0  0.96783  0.50697  0.38623  1.0000
  H   H14       1.0  0.46783  0.49303  0.11377  1.0000
  H   H15       1.0  0.03217  0.49302  0.61377  1.0000
  H   H16       1.0  0.53217  0.50697  0.88622  1.0000
  H   H17       1.0  0.95827  0.42355  0.25673  1.0000
  H   H18       1.0  0.45827  0.57645  0.24327  1.0000
  H   H19       1.0  0.04173  0.57645  0.74327  1.0000
  H   H20       1.0  0.54172  0.42355  0.75672  1.0000
  C   C1        1.0  0.56237  0.23087  0.45918  1.0000
  C   C2        1.0  0.06237  0.76913  0.04082  1.0000
  C   C3        1.0  0.43763  0.76913  0.54082  1.0000
  C   C4        1.0  0.93763  0.23088  0.95918  1.0000
  C   C5        1.0  0.73841  0.26606  0.40759  1.0000
  C   C6        1.0  0.23842  0.73394  0.09241  1.0000
  C   C7        1.0  0.26159  0.73394  0.59241  1.0000
  C   C8        1.0  0.76158  0.26606  0.90759  1.0000
  C   C9        1.0  0.04064  0.27392  0.35508  1.0000
  C   C10       1.0  0.54065  0.72608  0.14492  1.0000
  C   C11       1.0  0.95936  0.72608  0.64492  1.0000
  C   C12       1.0  0.45935  0.27392  0.85508  1.0000
  C   C13       1.0  0.93146  0.40660  0.33186  1.0000
  C   C14       1.0  0.43146  0.59341  0.16814  1.0000
  C   C15       1.0  0.06854  0.59340  0.66814  1.0000
  C   C16       1.0  0.56854  0.40659  0.83186  1.0000
  N   N1        1.0  0.45780  0.10607  0.41907  1.0000
  N   N2        1.0  0.95781  0.89393  0.08093  1.0000
  N   N3        1.0  0.54220  0.89393  0.58093  1.0000
  N   N4        1.0  0.04220  0.10607  0.91907  1.0000
  N   N5        1.0  0.51162  0.32538  0.54638  1.0000
  N   N6        1.0  0.01162  0.67461  0.95362  1.0000
  N   N7        1.0  0.48838  0.67462  0.45362  1.0000
  N   N8        1.0  0.98838  0.32539  0.04638  1.0000
  N   N9        1.0  0.72888  0.36418  0.34535  1.0000
  N   N10       1.0  0.22889  0.63582  0.15465  1.0000
  N   N11       1.0  0.27112  0.63582  0.65465  1.0000
  N   N12       1.0  0.77111  0.36419  0.84535  1.0000
  N   N13       1.0  0.90626  0.20832  0.41772  1.0000
  N   N14       1.0  0.40626  0.79168  0.08228  1.0000
  N   N15       1.0  0.09374  0.79168  0.58228  1.0000
  N   N16       1.0  0.59374  0.20832  0.91772  1.0000
  O   O1        1.0  0.51357  0.03717  0.33428  1.0000
  O   O2        1.0  0.01357  0.96282  0.16572  1.0000
  O   O3        1.0  0.48643  0.96282  0.66572  1.0000
  O   O4        1.0  0.98643  0.03718  0.83428  1.0000
  O   O5        1.0  0.31642  0.06243  0.46260  1.0000
  O   O6        1.0  0.81643  0.93757  0.03740  1.0000
  O   O7        1.0  0.68357  0.93758  0.53740  1.0000
  O   O8        1.0  0.18357  0.06243  0.96260  1.0000
  O   O9        1.0  0.36086  0.31057  0.59506  1.0000
  O   O10       1.0  0.86086  0.68943  0.90494  1.0000
  O   O11       1.0  0.63914  0.68943  0.40495  1.0000
  O   O12       1.0  0.13914  0.31058  0.09505  1.0000
  O   O13       1.0  0.62584  0.43313  0.57537  1.0000
  O   O14       1.0  0.12585  0.56687  0.92462  1.0000
  O   O15       1.0  0.37416  0.56687  0.42463  1.0000
  O   O16       1.0  0.87415  0.43313  0.07538  1.0000
