data_image0
_chemical_formula_structural       MnH36C48N4Cl2O8
_chemical_formula_sum              "Mn1 H36 C48 N4 Cl2 O8"
_cell_length_a       7.35659
_cell_length_b       11.4463
_cell_length_c       13.305
_cell_angle_alpha    106.956
_cell_angle_beta     99.2295
_cell_angle_gamma    100.222

_space_group_name_H-M_alt    "P 1"
_space_group_IT_number       1

loop_
  _space_group_symop_operation_xyz
  'x, y, z'

loop_
  _atom_site_type_symbol
  _atom_site_label
  _atom_site_symmetry_multiplicity
  _atom_site_fract_x
  _atom_site_fract_y
  _atom_site_fract_z
  _atom_site_occupancy
  Mn  Mn1       1.0  0.00043  0.00004  0.00010  1.0000
  H   H1        1.0  0.70264  0.18686  0.61615  1.0000
  H   H2        1.0  0.29737  0.81314  0.38384  1.0000
  H   H3        1.0  0.26597  0.54749  0.42907  1.0000
  H   H4        1.0  0.73402  0.45251  0.57094  1.0000
  H   H5        1.0  0.27535  0.14104  0.63665  1.0000
  H   H6        1.0  0.72466  0.85896  0.36334  1.0000
  H   H7        1.0  0.97997  0.46767  0.16720  1.0000
  H   H8        1.0  0.02021  0.53236  0.83282  1.0000
  H   H9        1.0  0.09001  0.57168  0.57704  1.0000
  H   H10       1.0  0.91001  0.42835  0.42299  1.0000
  H   H11       1.0  0.17138  0.92798  0.65569  1.0000
  H   H12       1.0  0.82862  0.07201  0.34430  1.0000
  H   H13       1.0  0.03188  0.36297  0.83425  1.0000
  H   H14       1.0  0.96830  0.63706  0.16579  1.0000
  H   H15       1.0  0.59863  0.97178  0.62720  1.0000
  H   H16       1.0  0.40138  0.02822  0.37280  1.0000
  H   H17       1.0  0.99479  0.25238  0.16104  1.0000
  H   H18       1.0  0.00477  0.74752  0.83889  1.0000
  H   H19       1.0  0.03444  0.14966  0.84116  1.0000
  H   H20       1.0  0.96505  0.85024  0.15876  1.0000
  H   H21       1.0  0.25468  0.70722  0.76303  1.0000
  H   H22       1.0  0.74535  0.29282  0.23699  1.0000
  H   H23       1.0  0.60163  0.66628  0.46889  1.0000
  H   H24       1.0  0.39837  0.33370  0.53110  1.0000
  H   H25       1.0  0.29968  0.92485  0.89568  1.0000
  H   H26       1.0  0.70053  0.07515  0.10435  1.0000
  H   H27       1.0  0.34347  0.06024  0.97817  1.0000
  H   H28       1.0  0.65684  0.93980  0.02183  1.0000
  H   H29       1.0  0.54699  0.48510  0.70015  1.0000
  H   H30       1.0  0.45298  0.51490  0.29985  1.0000
  H   H31       1.0  0.51764  0.28815  0.98050  1.0000
  H   H32       1.0  0.48241  0.71187  0.01951  1.0000
  H   H33       1.0  0.50692  0.61243  0.87509  1.0000
  H   H34       1.0  0.49309  0.38757  0.12491  1.0000
  H   H35       1.0  0.56013  0.17616  0.80143  1.0000
  H   H36       1.0  0.43989  0.82384  0.19858  1.0000
  C   C1        1.0  0.80316  0.12824  0.62166  1.0000
  C   C2        1.0  0.19684  0.87176  0.37833  1.0000
  C   C3        1.0  0.33633  0.60818  0.51095  1.0000
  C   C4        1.0  0.66368  0.39181  0.48906  1.0000
  C   C5        1.0  0.87963  0.93745  0.64339  1.0000
  C   C6        1.0  0.12037  0.06254  0.35661  1.0000
  C   C7        1.0  0.61625  0.75280  0.63792  1.0000
  C   C8        1.0  0.38376  0.24720  0.36208  1.0000
  C   C9        1.0  0.51811  0.76457  0.72146  1.0000
  C   C10       1.0  0.48192  0.23545  0.27854  1.0000
  C   C11       1.0  0.12835  0.10271  0.63559  1.0000
  C   C12       1.0  0.87165  0.89728  0.36440  1.0000
  C   C13       1.0  0.00293  0.43594  0.00018  1.0000
  C   C14       1.0  0.99724  0.56408  0.99985  1.0000
  C   C15       1.0  0.99139  0.40135  0.09228  1.0000
  C   C16       1.0  0.00875  0.59867  0.90775  1.0000
  C   C17       1.0  0.23856  0.61974  0.59356  1.0000
  C   C18       1.0  0.76147  0.38027  0.40646  1.0000
  C   C19       1.0  0.07032  0.98504  0.64552  1.0000
  C   C20       1.0  0.92968  0.01495  0.35448  1.0000
  C   C21       1.0  0.99434  0.17381  0.62565  1.0000
  C   C22       1.0  0.00567  0.82618  0.37434  1.0000
  C   C23       1.0  0.02061  0.34364  0.90860  1.0000
  C   C24       1.0  0.97949  0.65637  0.09142  1.0000
  C   C25       1.0  0.74707  0.00910  0.62974  1.0000
  C   C26       1.0  0.25293  0.99090  0.37025  1.0000
  C   C27       1.0  0.82335  0.81317  0.65732  1.0000
  C   C28       1.0  0.17665  0.18683  0.34268  1.0000
  C   C29       1.0  0.99694  0.27999  0.08924  1.0000
  C   C30       1.0  0.00272  0.71994  0.91071  1.0000
  C   C31       1.0  0.61268  0.84796  0.83433  1.0000
  C   C32       1.0  0.38743  0.15212  0.16566  1.0000
  C   C33       1.0  0.02215  0.22356  0.91134  1.0000
  C   C34       1.0  0.97748  0.77636  0.08862  1.0000
  C   C35       1.0  0.32962  0.69694  0.69805  1.0000
  C   C36       1.0  0.67041  0.30308  0.30197  1.0000
  C   C37       1.0  0.52449  0.67470  0.53308  1.0000
  C   C38       1.0  0.47552  0.32529  0.46692  1.0000
  C   C39       1.0  0.54098  0.44388  0.76435  1.0000
  C   C40       1.0  0.45902  0.55612  0.23565  1.0000
  C   C41       1.0  0.51027  0.46316  0.94622  1.0000
  C   C42       1.0  0.48975  0.53684  0.05379  1.0000
  C   C43       1.0  0.52394  0.33742  0.92190  1.0000
  C   C44       1.0  0.47608  0.66259  0.07811  1.0000
  C   C45       1.0  0.51759  0.51586  0.86347  1.0000
  C   C46       1.0  0.48242  0.48414  0.13653  1.0000
  C   C47       1.0  0.54749  0.27358  0.82027  1.0000
  C   C48       1.0  0.45252  0.72642  0.17972  1.0000
  N   N1        1.0  0.00987  0.19167  0.99997  1.0000
  N   N2        1.0  0.98923  0.80816  0.99989  1.0000
  N   N3        1.0  0.55715  0.32443  0.74152  1.0000
  N   N4        1.0  0.44285  0.67557  0.25847  1.0000
  Cl  Cl1       1.0  0.06925  0.32406  0.62039  1.0000
  Cl  Cl2       1.0  0.93076  0.67594  0.37961  1.0000
  O   O1        1.0  0.78007  0.91444  0.84957  1.0000
  O   O2        1.0  0.22003  0.08560  0.15038  1.0000
  O   O3        1.0  0.94019  0.75161  0.67406  1.0000
  O   O4        1.0  0.05981  0.24838  0.32592  1.0000
  O   O5        1.0  0.52110  0.84687  0.90814  1.0000
  O   O6        1.0  0.47900  0.15327  0.09187  1.0000
  O   O7        1.0  0.24315  0.99778  0.91460  1.0000
  O   O8        1.0  0.75703  0.00222  0.08549  1.0000
