data_image0
_chemical_formula_structural       CuH28C26O8
_chemical_formula_sum              "Cu1 H28 C26 O8"
_cell_length_a       4.89398
_cell_length_b       9.71688
_cell_length_c       14.9017
_cell_angle_alpha    111.749
_cell_angle_beta     111.9
_cell_angle_gamma    81.3726

_space_group_name_H-M_alt    "P 1"
_space_group_IT_number       1

loop_
  _space_group_symop_operation_xyz
  'x, y, z'

loop_
  _atom_site_type_symbol
  _atom_site_label
  _atom_site_symmetry_multiplicity
  _atom_site_fract_x
  _atom_site_fract_y
  _atom_site_fract_z
  _atom_site_occupancy
  Cu  Cu1       1.0  0.00000  1.00000  0.50000  1.0000
  H   H1        1.0  0.55693  0.66088  0.98765  1.0000
  H   H2        1.0  0.44307  0.33912  0.01235  1.0000
  H   H3        1.0  0.56278  0.80563  0.12365  1.0000
  H   H4        1.0  0.43720  0.19437  0.87635  1.0000
  H   H5        1.0  0.28123  0.44609  0.16047  1.0000
  H   H6        1.0  0.71879  0.55392  0.83953  1.0000
  H   H7        1.0  0.01365  0.46713  0.25001  1.0000
  H   H8        1.0  0.98637  0.53288  0.75000  1.0000
  H   H9        1.0  0.80261  0.57377  0.38872  1.0000
  H   H10       1.0  0.19737  0.42623  0.61128  1.0000
  H   H11       1.0  0.08509  0.88849  0.10721  1.0000
  H   H12       1.0  0.91490  0.11152  0.89279  1.0000
  H   H13       1.0  0.37181  0.02153  0.16387  1.0000
  H   H14       1.0  0.62818  0.97846  0.83613  1.0000
  H   H15       1.0  0.09421  0.19917  0.26787  1.0000
  H   H16       1.0  0.90580  0.80083  0.73214  1.0000
  H   H17       1.0  0.82370  0.06665  0.22392  1.0000
  H   H18       1.0  0.17629  0.93335  0.77608  1.0000
  H   H19       1.0  0.95673  0.20648  0.08856  1.0000
  H   H20       1.0  0.04331  0.79354  0.91146  1.0000
  H   H21       1.0  0.64151  0.23996  0.12522  1.0000
  H   H22       1.0  0.35851  0.76007  0.87480  1.0000
  H   H23       1.0  0.69906  0.06336  0.03973  1.0000
  H   H24       1.0  0.30094  0.93666  0.96027  1.0000
  H   H25       1.0  0.28002  0.79386  0.54751  1.0000
  H   H26       1.0  0.71998  0.20614  0.45249  1.0000
  H   H27       1.0  0.94462  0.79473  0.55088  1.0000
  H   H28       1.0  0.05539  0.20525  0.44912  1.0000
  C   C1        1.0  0.90513  0.56356  0.08693  1.0000
  C   C2        1.0  0.09484  0.43645  0.91307  1.0000
  C   C3        1.0  0.80079  0.62840  0.17512  1.0000
  C   C4        1.0  0.19922  0.37161  0.82488  1.0000
  C   C5        1.0  0.49318  0.81354  0.25907  1.0000
  C   C6        1.0  0.50678  0.18645  0.74091  1.0000
  C   C7        1.0  0.75703  0.59337  0.99490  1.0000
  C   C8        1.0  0.24299  0.40664  0.00510  1.0000
  C   C9        1.0  0.61460  0.75318  0.18109  1.0000
  C   C10       1.0  0.38540  0.24682  0.81891  1.0000
  C   C11       1.0  0.15111  0.46780  0.08961  1.0000
  C   C12       1.0  0.84888  0.53221  0.91040  1.0000
  C   C13       1.0  0.56216  0.74872  0.33645  1.0000
  C   C14       1.0  0.43781  0.25126  0.66353  1.0000
  C   C15       1.0  0.87189  0.56520  0.25235  1.0000
  C   C16       1.0  0.12813  0.43479  0.74765  1.0000
  C   C17       1.0  0.75338  0.62487  0.33037  1.0000
  C   C18       1.0  0.24661  0.37513  0.66963  1.0000
  C   C19       1.0  0.19411  0.98220  0.17678  1.0000
  C   C20       1.0  0.80590  0.01780  0.82322  1.0000
  C   C21       1.0  0.97598  0.10622  0.20040  1.0000
  C   C22       1.0  0.02403  0.89378  0.79961  1.0000
  C   C23       1.0  0.43319  0.80079  0.42034  1.0000
  C   C24       1.0  0.56681  0.19919  0.57966  1.0000
  C   C25       1.0  0.81010  0.15657  0.10852  1.0000
  C   C26       1.0  0.18993  0.84344  0.89149  1.0000
  O   O1        1.0  0.31093  0.93310  0.26356  1.0000
  O   O2        1.0  0.68904  0.06689  0.73643  1.0000
  O   O3        1.0  0.22346  0.89727  0.41215  1.0000
  O   O4        1.0  0.77653  0.10272  0.58785  1.0000
  O   O5        1.0  0.53435  0.74759  0.49311  1.0000
  O   O6        1.0  0.46567  0.25241  0.50688  1.0000
  O   O7        1.0  0.12220  0.85431  0.57504  1.0000
  O   O8        1.0  0.87779  0.14567  0.42496  1.0000
