data_image0
_chemical_formula_structural       Ho4H28C32O28
_chemical_formula_sum              "Ho4 H28 C32 O28"
_cell_length_a       7.15659
_cell_length_b       7.65343
_cell_length_c       17.2984
_cell_angle_alpha    92.1328
_cell_angle_beta     89.9998
_cell_angle_gamma    90

_space_group_name_H-M_alt    "P 1"
_space_group_IT_number       1

loop_
  _space_group_symop_operation_xyz
  'x, y, z'

loop_
  _atom_site_type_symbol
  _atom_site_label
  _atom_site_symmetry_multiplicity
  _atom_site_fract_x
  _atom_site_fract_y
  _atom_site_fract_z
  _atom_site_occupancy
  Ho  Ho1       1.0  0.00601  0.64618  0.75332  1.0000
  Ho  Ho2       1.0  0.50601  0.85382  0.74668  1.0000
  Ho  Ho3       1.0  0.99399  0.35382  0.24668  1.0000
  Ho  Ho4       1.0  0.49399  0.14618  0.25332  1.0000
  H   H1        1.0  0.15991  0.46358  0.97977  1.0000
  H   H2        1.0  0.65991  0.03643  0.52023  1.0000
  H   H3        1.0  0.84010  0.53642  0.02023  1.0000
  H   H4        1.0  0.34010  0.96357  0.47977  1.0000
  H   H5        1.0  0.28816  0.30110  0.55456  1.0000
  H   H6        1.0  0.78816  0.19890  0.94544  1.0000
  H   H7        1.0  0.71185  0.69890  0.44544  1.0000
  H   H8        1.0  0.21185  0.80110  0.05456  1.0000
  H   H9        1.0  0.48160  0.24663  0.61262  1.0000
  H   H10       1.0  0.98160  0.25337  0.88738  1.0000
  H   H11       1.0  0.51841  0.75338  0.38738  1.0000
  H   H12       1.0  0.01841  0.74662  0.11262  1.0000
  H   H13       1.0  0.66835  0.49075  0.55507  1.0000
  H   H14       1.0  0.16835  0.00925  0.94493  1.0000
  H   H15       1.0  0.33166  0.50925  0.44493  1.0000
  H   H16       1.0  0.83166  0.99075  0.05507  1.0000
  H   H17       1.0  0.60007  0.32454  0.48721  1.0000
  H   H18       1.0  0.10007  0.17546  0.01279  1.0000
  H   H19       1.0  0.39993  0.67547  0.51279  1.0000
  H   H20       1.0  0.89993  0.82453  0.98721  1.0000
  H   H21       1.0  0.81362  0.29544  0.69277  1.0000
  H   H22       1.0  0.31362  0.20457  0.80723  1.0000
  H   H23       1.0  0.18637  0.70456  0.30723  1.0000
  H   H24       1.0  0.68637  0.79544  0.19277  1.0000
  H   H25       1.0  0.68315  0.46449  0.69865  1.0000
  H   H26       1.0  0.18316  0.03552  0.80135  1.0000
  H   H27       1.0  0.31685  0.53551  0.30135  1.0000
  H   H28       1.0  0.81684  0.96448  0.19865  1.0000
  C   C1        1.0  0.31824  0.55287  0.85237  1.0000
  C   C2        1.0  0.81823  0.94713  0.64764  1.0000
  C   C3        1.0  0.68176  0.44713  0.14763  1.0000
  C   C4        1.0  0.18177  0.05287  0.35237  1.0000
  C   C5        1.0  0.42144  0.52790  0.92666  1.0000
  C   C6        1.0  0.92144  0.97210  0.57334  1.0000
  C   C7        1.0  0.57856  0.47210  0.07333  1.0000
  C   C8        1.0  0.07856  0.02790  0.42666  1.0000
  C   C9        1.0  0.30990  0.47832  0.98834  1.0000
  C   C10       1.0  0.80990  0.02168  0.51166  1.0000
  C   C11       1.0  0.69010  0.52167  0.01166  1.0000
  C   C12       1.0  0.19010  0.97832  0.48834  1.0000
  C   C13       1.0  0.61462  0.54979  0.93857  1.0000
  C   C14       1.0  0.11462  0.95021  0.56143  1.0000
  C   C15       1.0  0.38538  0.45021  0.06143  1.0000
  C   C16       1.0  0.88538  0.04978  0.43857  1.0000
  C   C17       1.0  0.74500  0.59535  0.87545  1.0000
  C   C18       1.0  0.24500  0.90465  0.62455  1.0000
  C   C19       1.0  0.25499  0.40465  0.12455  1.0000
  C   C20       1.0  0.75499  0.09535  0.37545  1.0000
  C   C21       1.0  0.34914  0.48483  0.64614  1.0000
  C   C22       1.0  0.84915  0.01516  0.85386  1.0000
  C   C23       1.0  0.65086  0.51517  0.35386  1.0000
  C   C24       1.0  0.15085  0.98483  0.14614  1.0000
  C   C25       1.0  0.41295  0.35503  0.58354  1.0000
  C   C26       1.0  0.91295  0.14497  0.91646  1.0000
  C   C27       1.0  0.58706  0.64498  0.41646  1.0000
  C   C28       1.0  0.08706  0.85502  0.08354  1.0000
  C   C29       1.0  0.54693  0.43223  0.52482  1.0000
  C   C30       1.0  0.04693  0.06777  0.97518  1.0000
  C   C31       1.0  0.45307  0.56778  0.47518  1.0000
  C   C32       1.0  0.95308  0.93222  0.02482  1.0000
  O   O1        1.0  0.29626  0.70884  0.82749  1.0000
  O   O2        1.0  0.79625  0.79117  0.67251  1.0000
  O   O3        1.0  0.70372  0.29117  0.17251  1.0000
  O   O4        1.0  0.20373  0.20883  0.32749  1.0000
  O   O5        1.0  0.81140  0.42015  0.70959  1.0000
  O   O6        1.0  0.31141  0.07986  0.79041  1.0000
  O   O7        1.0  0.18859  0.57985  0.29041  1.0000
  O   O8        1.0  0.68859  0.92014  0.20959  1.0000
  O   O9        1.0  0.23489  0.42492  0.82027  1.0000
  O   O10       1.0  0.73488  0.07509  0.67973  1.0000
  O   O11       1.0  0.76512  0.57508  0.17973  1.0000
  O   O12       1.0  0.26512  0.92492  0.32027  1.0000
  O   O13       1.0  0.68058  0.65197  0.81191  1.0000
  O   O14       1.0  0.18059  0.84803  0.68808  1.0000
  O   O15       1.0  0.31941  0.34803  0.18808  1.0000
  O   O16       1.0  0.81941  0.15196  0.31191  1.0000
  O   O17       1.0  0.91943  0.57486  0.88362  1.0000
  O   O18       1.0  0.41943  0.92514  0.61638  1.0000
  O   O19       1.0  0.08057  0.42513  0.11638  1.0000
  O   O20       1.0  0.58057  0.07487  0.38362  1.0000
  O   O21       1.0  0.17551  0.49802  0.65973  1.0000
  O   O22       1.0  0.67551  0.00199  0.84027  1.0000
  O   O23       1.0  0.82449  0.50199  0.34027  1.0000
  O   O24       1.0  0.32449  0.99802  0.15974  1.0000
  O   O25       1.0  0.47483  0.57408  0.68320  1.0000
  O   O26       1.0  0.97482  0.92591  0.81680  1.0000
  O   O27       1.0  0.52518  0.42592  0.31680  1.0000
  O   O28       1.0  0.02517  0.07408  0.18320  1.0000
