data_image0
_chemical_formula_structural       Mn2H16C24N4O12
_chemical_formula_sum              "Mn2 H16 C24 N4 O12"
_cell_length_a       5.64478
_cell_length_b       7.42319
_cell_length_c       15.8126
_cell_angle_alpha    92.311
_cell_angle_beta     89.9955
_cell_angle_gamma    112.374

_space_group_name_H-M_alt    "P 1"
_space_group_IT_number       1

loop_
  _space_group_symop_operation_xyz
  'x, y, z'

loop_
  _atom_site_type_symbol
  _atom_site_label
  _atom_site_symmetry_multiplicity
  _atom_site_fract_x
  _atom_site_fract_y
  _atom_site_fract_z
  _atom_site_occupancy
  Mn  Mn1       1.0  0.62965  0.00069  0.25002  1.0000
  Mn  Mn2       1.0  0.37041  0.99931  0.74998  1.0000
  H   H1        1.0  0.60079  0.84703  0.03904  1.0000
  H   H2        1.0  0.75297  0.15433  0.46075  1.0000
  H   H3        1.0  0.39925  0.15298  0.96095  1.0000
  H   H4        1.0  0.24695  0.84567  0.53925  1.0000
  H   H5        1.0  0.86699  0.74018  0.94007  1.0000
  H   H6        1.0  0.12593  0.26015  0.55977  1.0000
  H   H7        1.0  0.13303  0.25984  0.05992  1.0000
  H   H8        1.0  0.87398  0.73986  0.44024  1.0000
  H   H9        1.0  0.93567  0.36788  0.13677  1.0000
  H   H10       1.0  0.56832  0.63296  0.36338  1.0000
  H   H11       1.0  0.06437  0.63212  0.86321  1.0000
  H   H12       1.0  0.43161  0.36702  0.63663  1.0000
  H   H13       1.0  0.67194  0.49373  0.22678  1.0000
  H   H14       1.0  0.17874  0.50796  0.27330  1.0000
  H   H15       1.0  0.32809  0.50627  0.77321  1.0000
  H   H16       1.0  0.82120  0.49202  0.72670  1.0000
  C   C1        1.0  0.10594  0.94545  0.29218  1.0000
  C   C2        1.0  0.16117  0.05602  0.20794  1.0000
  C   C3        1.0  0.89410  0.05453  0.70783  1.0000
  C   C4        1.0  0.83888  0.94397  0.79207  1.0000
  C   C5        1.0  0.68278  0.74208  0.05557  1.0000
  C   C6        1.0  0.94012  0.25926  0.44434  1.0000
  C   C7        1.0  0.31727  0.25794  0.94443  1.0000
  C   C8        1.0  0.05979  0.74075  0.55567  1.0000
  C   C9        1.0  0.83003  0.67826  0.00235  1.0000
  C   C10       1.0  0.15116  0.32246  0.49757  1.0000
  C   C11       1.0  0.17000  0.32176  0.99763  1.0000
  C   C12       1.0  0.84875  0.67755  0.50244  1.0000
  C   C13       1.0  0.92605  0.53826  0.02811  1.0000
  C   C14       1.0  0.38763  0.46220  0.47189  1.0000
  C   C15       1.0  0.07398  0.46175  0.97187  1.0000
  C   C16       1.0  0.61229  0.53780  0.52811  1.0000
  C   C17       1.0  0.86945  0.47475  0.11121  1.0000
  C   C18       1.0  0.39490  0.52623  0.38887  1.0000
  C   C19       1.0  0.13058  0.52525  0.88877  1.0000
  C   C20       1.0  0.60503  0.47376  0.61113  1.0000
  C   C21       1.0  0.72235  0.54206  0.16294  1.0000
  C   C22       1.0  0.18052  0.45937  0.33710  1.0000
  C   C23       1.0  0.27768  0.45794  0.83704  1.0000
  C   C24       1.0  0.81941  0.54062  0.66290  1.0000
  N   N1        1.0  0.62671  0.67229  0.13478  1.0000
  N   N2        1.0  0.95430  0.32927  0.36517  1.0000
  N   N3        1.0  0.37334  0.32772  0.86521  1.0000
  N   N4        1.0  0.04563  0.67072  0.63484  1.0000
  O   O1        1.0  0.88382  0.90467  0.32273  1.0000
  O   O2        1.0  0.97990  0.09714  0.17757  1.0000
  O   O3        1.0  0.11624  0.09533  0.67728  1.0000
  O   O4        1.0  0.02016  0.90288  0.82245  1.0000
  O   O5        1.0  0.28321  0.90422  0.32396  1.0000
  O   O6        1.0  0.37938  0.09692  0.17598  1.0000
  O   O7        1.0  0.71683  0.09575  0.67604  1.0000
  O   O8        1.0  0.62067  0.90307  0.82403  1.0000
  O   O9        1.0  0.47965  0.73206  0.18469  1.0000
  O   O10       1.0  0.74755  0.26962  0.31519  1.0000
  O   O11       1.0  0.52041  0.26795  0.81531  1.0000
  O   O12       1.0  0.25239  0.73037  0.68481  1.0000
