data_image0
_chemical_formula_structural       Mn3H34C38N4O18
_chemical_formula_sum              "Mn3 H34 C38 N4 O18"
_cell_length_a       10.1999
_cell_length_b       10.5793
_cell_length_c       11.9276
_cell_angle_alpha    74.019
_cell_angle_beta     76.3361
_cell_angle_gamma    81.4274

_space_group_name_H-M_alt    "P 1"
_space_group_IT_number       1

loop_
  _space_group_symop_operation_xyz
  'x, y, z'

loop_
  _atom_site_type_symbol
  _atom_site_label
  _atom_site_symmetry_multiplicity
  _atom_site_fract_x
  _atom_site_fract_y
  _atom_site_fract_z
  _atom_site_occupancy
  Mn  Mn1       1.0  0.88500  0.73914  0.71366  1.0000
  Mn  Mn2       1.0  0.11499  0.26087  0.28635  1.0000
  Mn  Mn3       1.0  0.50000  0.50000  0.50000  1.0000
  H   H1        1.0  0.88113  0.71467  0.48523  1.0000
  H   H2        1.0  0.11889  0.28536  0.51477  1.0000
  H   H3        1.0  0.01699  0.77734  0.48265  1.0000
  H   H4        1.0  0.98303  0.22267  0.51736  1.0000
  H   H5        1.0  0.75799  0.51996  0.44407  1.0000
  H   H6        1.0  0.24202  0.48006  0.55594  1.0000
  H   H7        1.0  0.76225  0.38899  0.39863  1.0000
  H   H8        1.0  0.23773  0.61103  0.60139  1.0000
  H   H9        1.0  0.57662  0.58354  0.68487  1.0000
  H   H10       1.0  0.42339  0.41636  0.31519  1.0000
  H   H11       1.0  0.59724  0.42880  0.70278  1.0000
  H   H12       1.0  0.40291  0.57112  0.29711  1.0000
  H   H13       1.0  0.39278  0.71689  0.70939  1.0000
  H   H14       1.0  0.60719  0.28312  0.29061  1.0000
  H   H15       1.0  0.14652  0.08135  0.62595  1.0000
  H   H16       1.0  0.85347  0.91868  0.37406  1.0000
  H   H17       1.0  0.56812  0.08630  0.62664  1.0000
  H   H18       1.0  0.43190  0.91369  0.37328  1.0000
  H   H19       1.0  0.79508  0.91819  0.89474  1.0000
  H   H20       1.0  0.20497  0.08182  0.10528  1.0000
  H   H21       1.0  0.69699  0.89085  0.11462  1.0000
  H   H22       1.0  0.30305  0.10915  0.88539  1.0000
  H   H23       1.0  0.67631  0.65906  0.24488  1.0000
  H   H24       1.0  0.32372  0.34093  0.75513  1.0000
  H   H25       1.0  0.75922  0.47011  0.15724  1.0000
  H   H26       1.0  0.24080  0.52990  0.84275  1.0000
  H   H27       1.0  0.84822  0.32448  0.07448  1.0000
  H   H28       1.0  0.15179  0.67553  0.92552  1.0000
  H   H29       1.0  0.91677  0.15304  0.95879  1.0000
  H   H30       1.0  0.08323  0.84697  0.04122  1.0000
  H   H31       1.0  0.97462  0.22600  0.73467  1.0000
  H   H32       1.0  0.02532  0.77400  0.26534  1.0000
  H   H33       1.0  0.95983  0.46853  0.63679  1.0000
  H   H34       1.0  0.04011  0.53146  0.36321  1.0000
  C   C1        1.0  0.13771  0.81877  0.68647  1.0000
  C   C2        1.0  0.86223  0.18127  0.31353  1.0000
  C   C3        1.0  0.38325  0.82436  0.68566  1.0000
  C   C4        1.0  0.61671  0.17564  0.31432  1.0000
  C   C5        1.0  0.63003  0.82355  0.68726  1.0000
  C   C6        1.0  0.36996  0.17641  0.31272  1.0000
  C   C7        1.0  0.25786  0.89254  0.66982  1.0000
  C   C8        1.0  0.74211  0.10749  0.33018  1.0000
  C   C9        1.0  0.49492  0.89402  0.67128  1.0000
  C   C10       1.0  0.50508  0.10596  0.32869  1.0000
  C   C11       1.0  0.24483  0.03057  0.63821  1.0000
  C   C12       1.0  0.75516  0.96946  0.36177  1.0000
  C   C13       1.0  0.48091  0.03199  0.63938  1.0000
  C   C14       1.0  0.51911  0.96799  0.36055  1.0000
  C   C15       1.0  0.35619  0.10094  0.62182  1.0000
  C   C16       1.0  0.64382  0.89907  0.37814  1.0000
  C   C17       1.0  0.34502  0.24876  0.58670  1.0000
  C   C18       1.0  0.65499  0.75125  0.41329  1.0000
  C   C19       1.0  0.78547  0.82089  0.95672  1.0000
  C   C20       1.0  0.21457  0.17911  0.04329  1.0000
  C   C21       1.0  0.73101  0.80510  0.07787  1.0000
  C   C22       1.0  0.26902  0.19490  0.92214  1.0000
  C   C23       1.0  0.72073  0.67699  0.15031  1.0000
  C   C24       1.0  0.27929  0.32302  0.84970  1.0000
  C   C25       1.0  0.76548  0.56997  0.10037  1.0000
  C   C26       1.0  0.23454  0.43004  0.89963  1.0000
  C   C27       1.0  0.81831  0.59364  0.97784  1.0000
  C   C28       1.0  0.18171  0.40637  0.02215  1.0000
  C   C29       1.0  0.86341  0.48637  0.91594  1.0000
  C   C30       1.0  0.13659  0.51364  0.08405  1.0000
  C   C31       1.0  0.87114  0.35281  0.97743  1.0000
  C   C32       1.0  0.12885  0.64719  0.02257  1.0000
  C   C33       1.0  0.91031  0.25750  0.91260  1.0000
  C   C34       1.0  0.08967  0.74249  0.08741  1.0000
  C   C35       1.0  0.94211  0.29746  0.78841  1.0000
  C   C36       1.0  0.05784  0.70254  0.21160  1.0000
  C   C37       1.0  0.93432  0.43204  0.73348  1.0000
  C   C38       1.0  0.06564  0.56795  0.26653  1.0000
  N   N1        1.0  0.82764  0.71796  0.90795  1.0000
  N   N2        1.0  0.17239  0.28205  0.09205  1.0000
  N   N3        1.0  0.89554  0.52446  0.79540  1.0000
  N   N4        1.0  0.10443  0.47555  0.20459  1.0000
  O   O1        1.0  0.95310  0.71423  0.53139  1.0000
  O   O2        1.0  0.04689  0.28581  0.46862  1.0000
  O   O3        1.0  0.71858  0.43386  0.46295  1.0000
  O   O4        1.0  0.28142  0.56616  0.53706  1.0000
  O   O5        1.0  0.53526  0.50532  0.67815  1.0000
  O   O6        1.0  0.46477  0.49456  0.32191  1.0000
  O   O7        1.0  0.65087  0.69858  0.70180  1.0000
  O   O8        1.0  0.34909  0.30137  0.29825  1.0000
  O   O9        1.0  0.72436  0.89164  0.68551  1.0000
  O   O10       1.0  0.27564  0.10831  0.31447  1.0000
  O   O11       1.0  0.15174  0.69310  0.70823  1.0000
  O   O12       1.0  0.84818  0.30693  0.29179  1.0000
  O   O13       1.0  0.02301  0.88536  0.67953  1.0000
  O   O14       1.0  0.97694  0.11469  0.32048  1.0000
  O   O15       1.0  0.23014  0.31272  0.57572  1.0000
  O   O16       1.0  0.76988  0.68731  0.42429  1.0000
  O   O17       1.0  0.45278  0.30308  0.57376  1.0000
  O   O18       1.0  0.54724  0.69691  0.42624  1.0000
