data_image0
_chemical_formula_structural       Zn2Mo4H22C30N6O14
_chemical_formula_sum              "Zn2 Mo4 H22 C30 N6 O14"
_cell_length_a       8.70052
_cell_length_b       10.2503
_cell_length_c       11.1419
_cell_angle_alpha    91.66
_cell_angle_beta     110.776
_cell_angle_gamma    112.487

_space_group_name_H-M_alt    "P 1"
_space_group_IT_number       1

loop_
  _space_group_symop_operation_xyz
  'x, y, z'

loop_
  _atom_site_type_symbol
  _atom_site_label
  _atom_site_symmetry_multiplicity
  _atom_site_fract_x
  _atom_site_fract_y
  _atom_site_fract_z
  _atom_site_occupancy
  Zn  Zn1       1.0  0.06948  0.27911  0.18154  1.0000
  Zn  Zn2       1.0  0.93052  0.72090  0.81846  1.0000
  Mo  Mo1       1.0  0.09885  0.62154  0.14366  1.0000
  Mo  Mo2       1.0  0.90115  0.37846  0.85634  1.0000
  Mo  Mo3       1.0  0.95813  0.90984  0.11141  1.0000
  Mo  Mo4       1.0  0.04187  0.09016  0.88859  1.0000
  H   H1        1.0  0.36395  0.43324  0.06066  1.0000
  H   H2        1.0  0.63605  0.56676  0.93934  1.0000
  H   H3        1.0  0.70329  0.53124  0.13693  1.0000
  H   H4        1.0  0.29671  0.46876  0.86307  1.0000
  H   H5        1.0  0.88326  0.51064  0.36059  1.0000
  H   H6        1.0  0.11674  0.48936  0.63942  1.0000
  H   H7        1.0  0.72158  0.40070  0.50448  1.0000
  H   H8        1.0  0.27842  0.59930  0.49552  1.0000
  H   H9        1.0  0.56564  0.29866  0.60984  1.0000
  H   H10       1.0  0.43436  0.70134  0.39016  1.0000
  H   H11       1.0  0.35817  0.19783  0.72330  1.0000
  H   H12       1.0  0.64183  0.80216  0.27670  1.0000
  H   H13       1.0  0.02863  0.13458  0.60799  1.0000
  H   H14       1.0  0.97137  0.86542  0.39202  1.0000
  H   H15       1.0  0.75600  0.09309  0.49426  1.0000
  H   H16       1.0  0.24400  0.90691  0.50574  1.0000
  H   H17       1.0  0.43439  0.01819  0.33482  1.0000
  H   H18       1.0  0.56561  0.98181  0.66518  1.0000
  H   H19       1.0  0.37707  0.05953  0.10510  1.0000
  H   H20       1.0  0.62293  0.94047  0.89489  1.0000
  H   H21       1.0  0.64098  0.18079  0.04456  1.0000
  H   H22       1.0  0.35903  0.81921  0.95544  1.0000
  C   C1        1.0  0.44937  0.42928  0.15808  1.0000
  C   C2        1.0  0.55063  0.57072  0.84192  1.0000
  C   C3        1.0  0.63665  0.48125  0.20039  1.0000
  C   C4        1.0  0.36335  0.51875  0.79961  1.0000
  C   C5        1.0  0.73645  0.47067  0.32599  1.0000
  C   C6        1.0  0.26355  0.52933  0.67401  1.0000
  C   C7        1.0  0.64663  0.41023  0.40577  1.0000
  C   C8        1.0  0.35337  0.58977  0.59423  1.0000
  C   C9        1.0  0.45833  0.36201  0.35699  1.0000
  C   C10       1.0  0.54167  0.63799  0.64301  1.0000
  C   C11       1.0  0.35084  0.29955  0.43520  1.0000
  C   C12       1.0  0.64916  0.70046  0.56480  1.0000
  C   C13       1.0  0.42224  0.27411  0.56134  1.0000
  C   C14       1.0  0.57776  0.72589  0.43866  1.0000
  C   C15       1.0  0.30523  0.21608  0.62406  1.0000
  C   C16       1.0  0.69477  0.78392  0.37594  1.0000
  C   C17       1.0  0.12078  0.18179  0.56001  1.0000
  C   C18       1.0  0.87923  0.81821  0.43999  1.0000
  C   C19       1.0  0.05790  0.20807  0.43317  1.0000
  C   C20       1.0  0.94210  0.79193  0.56683  1.0000
  C   C21       1.0  0.86514  0.17004  0.35021  1.0000
  C   C22       1.0  0.13486  0.82996  0.64979  1.0000
  C   C23       1.0  0.72557  0.10886  0.39360  1.0000
  C   C24       1.0  0.27443  0.89113  0.60640  1.0000
  C   C25       1.0  0.54724  0.06762  0.30521  1.0000
  C   C26       1.0  0.45276  0.93238  0.69478  1.0000
  C   C27       1.0  0.51380  0.09103  0.17774  1.0000
  C   C28       1.0  0.48620  0.90897  0.82226  1.0000
  C   C29       1.0  0.66007  0.15701  0.14247  1.0000
  C   C30       1.0  0.33993  0.84298  0.85753  1.0000
  N   N1        1.0  0.36224  0.37065  0.23424  1.0000
  N   N2        1.0  0.63776  0.62935  0.76576  1.0000
  N   N3        1.0  0.17361  0.26730  0.37589  1.0000
  N   N4        1.0  0.82639  0.73270  0.62411  1.0000
  N   N5        1.0  0.83110  0.19425  0.22663  1.0000
  N   N6        1.0  0.16890  0.80575  0.77337  1.0000
  O   O1        1.0  0.30863  0.71744  0.14103  1.0000
  O   O2        1.0  0.69137  0.28255  0.85897  1.0000
  O   O3        1.0  0.13872  0.63192  0.30849  1.0000
  O   O4        1.0  0.86128  0.36808  0.69151  1.0000
  O   O5        1.0  0.94220  0.71574  0.09292  1.0000
  O   O6        1.0  0.05780  0.28426  0.90708  1.0000
  O   O7        1.0  0.01317  0.42585  0.08893  1.0000
  O   O8        1.0  0.98683  0.57415  0.91107  1.0000
  O   O9        1.0  0.99393  0.89938  0.93997  1.0000
  O   O10       1.0  0.00607  0.10062  0.06003  1.0000
  O   O11       1.0  0.74830  0.87027  0.11253  1.0000
  O   O12       1.0  0.25170  0.12973  0.88747  1.0000
  O   O13       1.0  0.12134  0.97298  0.26944  1.0000
  O   O14       1.0  0.87866  0.02702  0.73056  1.0000
