data_image0
_chemical_formula_structural       Cu2P2H40C48I2N4
_chemical_formula_sum              "Cu2 P2 H40 C48 I2 N4"
_cell_length_a       9.86076
_cell_length_b       10.7915
_cell_length_c       12.6474
_cell_angle_alpha    72.934
_cell_angle_beta     68.5627
_cell_angle_gamma    72.3569

_space_group_name_H-M_alt    "P 1"
_space_group_IT_number       1

loop_
  _space_group_symop_operation_xyz
  'x, y, z'

loop_
  _atom_site_type_symbol
  _atom_site_label
  _atom_site_symmetry_multiplicity
  _atom_site_fract_x
  _atom_site_fract_y
  _atom_site_fract_z
  _atom_site_occupancy
  Cu  Cu1       1.0  0.96460  0.05819  0.09640  1.0000
  Cu  Cu2       1.0  0.03539  0.94181  0.90360  1.0000
  P   P1        1.0  0.78198  0.01762  0.25859  1.0000
  P   P2        1.0  0.21802  0.98238  0.74141  1.0000
  H   H1        1.0  0.05705  0.96636  0.30854  1.0000
  H   H2        1.0  0.94296  0.03363  0.69147  1.0000
  H   H3        1.0  0.14849  0.83196  0.47646  1.0000
  H   H4        1.0  0.85150  0.16803  0.52355  1.0000
  H   H5        1.0  0.98671  0.70033  0.64361  1.0000
  H   H6        1.0  0.01328  0.29967  0.35640  1.0000
  H   H7        1.0  0.73368  0.70172  0.64184  1.0000
  H   H8        1.0  0.26631  0.29829  0.35817  1.0000
  H   H9        1.0  0.64257  0.83712  0.47634  1.0000
  H   H10       1.0  0.35743  0.16288  0.52365  1.0000
  H   H11       1.0  0.82201  0.76204  0.21187  1.0000
  H   H12       1.0  0.17797  0.23797  0.78813  1.0000
  H   H13       1.0  0.65042  0.64192  0.20067  1.0000
  H   H14       1.0  0.34957  0.35809  0.79933  1.0000
  H   H15       1.0  0.37994  0.74982  0.23016  1.0000
  H   H16       1.0  0.62005  0.25020  0.76982  1.0000
  H   H17       1.0  0.28301  0.97519  0.27698  1.0000
  H   H18       1.0  0.71698  0.02483  0.72302  1.0000
  H   H19       1.0  0.45191  0.09282  0.29201  1.0000
  H   H20       1.0  0.54809  0.90719  0.70798  1.0000
  H   H21       1.0  0.68533  0.09930  0.48479  1.0000
  H   H22       1.0  0.31468  0.90070  0.51521  1.0000
  H   H23       1.0  0.54557  0.31050  0.54702  1.0000
  H   H24       1.0  0.45443  0.68950  0.45297  1.0000
  H   H25       1.0  0.44500  0.50368  0.40916  1.0000
  H   H26       1.0  0.55501  0.49633  0.59083  1.0000
  H   H27       1.0  0.48949  0.48199  0.20764  1.0000
  H   H28       1.0  0.51053  0.51801  0.79235  1.0000
  H   H29       1.0  0.63170  0.27038  0.14423  1.0000
  H   H30       1.0  0.36832  0.72960  0.85577  1.0000
  H   H31       1.0  0.89379  0.33042  0.13031  1.0000
  H   H32       1.0  0.10620  0.66956  0.86972  1.0000
  H   H33       1.0  0.03029  0.49838  0.11729  1.0000
  H   H34       1.0  0.96970  0.50161  0.88274  1.0000
  H   H35       1.0  0.44176  0.20411  0.03377  1.0000
  H   H36       1.0  0.55824  0.79590  0.96621  1.0000
  H   H37       1.0  0.28738  0.04734  0.05173  1.0000
  H   H38       1.0  0.71262  0.95266  0.94826  1.0000
  H   H39       1.0  0.26579  0.55876  0.08447  1.0000
  H   H40       1.0  0.73421  0.44123  0.91553  1.0000
  C   C1        1.0  0.98638  0.90928  0.38279  1.0000
  C   C2        1.0  0.01363  0.09072  0.61721  1.0000
  C   C3        1.0  0.03749  0.83361  0.47651  1.0000
  C   C4        1.0  0.96251  0.16639  0.52349  1.0000
  C   C5        1.0  0.94669  0.75937  0.57031  1.0000
  C   C6        1.0  0.05330  0.24062  0.42970  1.0000
  C   C7        1.0  0.80487  0.76045  0.56964  1.0000
  C   C8        1.0  0.19513  0.23955  0.43036  1.0000
  C   C9        1.0  0.75325  0.83668  0.47609  1.0000
  C   C10       1.0  0.24675  0.16332  0.52391  1.0000
  C   C11       1.0  0.84350  0.91230  0.38217  1.0000
  C   C12       1.0  0.15651  0.08770  0.61783  1.0000
  C   C13       1.0  0.64832  0.93531  0.25359  1.0000
  C   C14       1.0  0.35167  0.06469  0.74642  1.0000
  C   C15       1.0  0.70319  0.80778  0.22756  1.0000
  C   C16       1.0  0.29679  0.19223  0.77244  1.0000
  C   C17       1.0  0.60696  0.74092  0.22051  1.0000
  C   C18       1.0  0.39303  0.25909  0.77948  1.0000
  C   C19       1.0  0.45527  0.80067  0.23767  1.0000
  C   C20       1.0  0.54472  0.19935  0.76232  1.0000
  C   C21       1.0  0.40087  0.92742  0.26297  1.0000
  C   C22       1.0  0.59912  0.07259  0.73702  1.0000
  C   C23       1.0  0.49645  0.99452  0.27109  1.0000
  C   C24       1.0  0.50354  0.00549  0.72891  1.0000
  C   C25       1.0  0.66862  0.16946  0.31051  1.0000
  C   C26       1.0  0.33139  0.83053  0.68949  1.0000
  C   C27       1.0  0.64422  0.18330  0.42325  1.0000
  C   C28       1.0  0.35579  0.81670  0.57674  1.0000
  C   C29       1.0  0.56516  0.30317  0.45827  1.0000
  C   C30       1.0  0.43485  0.69683  0.54172  1.0000
  C   C31       1.0  0.50862  0.41069  0.38135  1.0000
  C   C32       1.0  0.49139  0.58931  0.61864  1.0000
  C   C33       1.0  0.53263  0.39816  0.26858  1.0000
  C   C34       1.0  0.46740  0.60184  0.73142  1.0000
  C   C35       1.0  0.61248  0.27885  0.23287  1.0000
  C   C36       1.0  0.38754  0.72115  0.76712  1.0000
  C   C37       1.0  0.01517  0.30651  0.10954  1.0000
  C   C38       1.0  0.98482  0.69348  0.89048  1.0000
  C   C39       1.0  0.09133  0.39902  0.10263  1.0000
  C   C40       1.0  0.90866  0.60097  0.89739  1.0000
  C   C41       1.0  0.24831  0.36509  0.07251  1.0000
  C   C42       1.0  0.75169  0.63491  0.92749  1.0000
  C   C43       1.0  0.32050  0.23517  0.05593  1.0000
  C   C44       1.0  0.67950  0.76483  0.94406  1.0000
  C   C45       1.0  0.23576  0.14844  0.06562  1.0000
  C   C46       1.0  0.76424  0.85155  0.93438  1.0000
  C   C47       1.0  0.32910  0.46488  0.05617  1.0000
  C   C48       1.0  0.67090  0.53512  0.94383  1.0000
  I   I1        1.0  0.15596  0.82707  0.07437  1.0000
  I   I2        1.0  0.84404  0.17293  0.92564  1.0000
  N   N1        1.0  0.08541  0.18272  0.09020  1.0000
  N   N2        1.0  0.91459  0.81728  0.90980  1.0000
  N   N3        1.0  0.47206  0.44638  0.00442  1.0000
  N   N4        1.0  0.52794  0.55363  0.99556  1.0000
