data_image0
_chemical_formula_structural       Hg2H36C30S2N8Cl4O4
_chemical_formula_sum              "Hg2 H36 C30 S2 N8 Cl4 O4"
_cell_length_a       8.23259
_cell_length_b       9.09107
_cell_length_c       13.3248
_cell_angle_alpha    98.177
_cell_angle_beta     106.102
_cell_angle_gamma    93.9036

_space_group_name_H-M_alt    "P 1"
_space_group_IT_number       1

loop_
  _space_group_symop_operation_xyz
  'x, y, z'

loop_
  _atom_site_type_symbol
  _atom_site_label
  _atom_site_symmetry_multiplicity
  _atom_site_fract_x
  _atom_site_fract_y
  _atom_site_fract_z
  _atom_site_occupancy
  Hg  Hg1       1.0  0.48043  0.05015  0.63789  1.0000
  Hg  Hg2       1.0  0.51957  0.94985  0.36211  1.0000
  H   H1        1.0  0.34746  0.08549  0.81483  1.0000
  H   H2        1.0  0.65254  0.91451  0.18517  1.0000
  H   H3        1.0  0.90086  0.01128  0.71942  1.0000
  H   H4        1.0  0.09914  0.98872  0.28058  1.0000
  H   H5        1.0  0.88089  0.08772  0.60330  1.0000
  H   H6        1.0  0.11910  0.91228  0.39670  1.0000
  H   H7        1.0  0.41025  0.40376  0.26298  1.0000
  H   H8        1.0  0.58975  0.59624  0.73702  1.0000
  H   H9        1.0  0.50635  0.57271  0.23932  1.0000
  H   H10       1.0  0.49365  0.42729  0.76068  1.0000
  H   H11       1.0  0.57755  0.51428  0.36453  1.0000
  H   H12       1.0  0.42245  0.48572  0.63546  1.0000
  H   H13       1.0  0.67399  0.28470  0.27889  1.0000
  H   H14       1.0  0.32601  0.71530  0.72110  1.0000
  H   H15       1.0  0.60487  0.33914  0.15412  1.0000
  H   H16       1.0  0.39513  0.66087  0.84588  1.0000
  H   H17       1.0  0.15150  0.34677  0.44273  1.0000
  H   H18       1.0  0.84849  0.65323  0.55727  1.0000
  H   H19       1.0  0.13377  0.34178  0.30656  1.0000
  H   H20       1.0  0.86622  0.65822  0.69344  1.0000
  H   H21       1.0  0.98580  0.22843  0.34476  1.0000
  H   H22       1.0  0.01420  0.77157  0.65524  1.0000
  H   H23       1.0  0.87069  0.45257  0.41746  1.0000
  H   H24       1.0  0.12931  0.54743  0.58254  1.0000
  H   H25       1.0  0.02223  0.57351  0.38885  1.0000
  H   H26       1.0  0.97777  0.42649  0.61116  1.0000
  H   H27       1.0  0.14300  0.57460  0.26809  1.0000
  H   H28       1.0  0.85700  0.42539  0.73191  1.0000
  H   H29       1.0  0.68734  0.66705  0.95585  1.0000
  H   H30       1.0  0.31267  0.33296  0.04415  1.0000
  H   H31       1.0  0.60861  0.52939  0.08375  1.0000
  H   H32       1.0  0.39140  0.47061  0.91625  1.0000
  H   H33       1.0  0.91697  0.81111  0.90087  1.0000
  H   H34       1.0  0.08303  0.18890  0.09913  1.0000
  H   H35       1.0  0.38335  0.94629  0.94171  1.0000
  H   H36       1.0  0.61665  0.05370  0.05829  1.0000
  C   C1        1.0  0.53067  0.47505  0.27866  1.0000
  C   C2        1.0  0.46933  0.52495  0.72134  1.0000
  C   C3        1.0  0.65601  0.38309  0.23927  1.0000
  C   C4        1.0  0.34400  0.61691  0.76073  1.0000
  C   C5        1.0  0.06072  0.33820  0.36376  1.0000
  C   C6        1.0  0.93928  0.66180  0.63624  1.0000
  C   C7        1.0  0.94638  0.46332  0.36217  1.0000
  C   C8        1.0  0.05362  0.53668  0.63783  1.0000
  C   C9        1.0  0.86825  0.53689  0.18633  1.0000
  C   C10       1.0  0.13176  0.46312  0.81367  1.0000
  C   C11       1.0  0.04040  0.59136  0.20055  1.0000
  C   C12       1.0  0.95961  0.40864  0.79945  1.0000
  C   C13       1.0  0.08092  0.66604  0.12618  1.0000
  C   C14       1.0  0.91908  0.33396  0.87383  1.0000
  C   C15       1.0  0.95723  0.69686  0.03603  1.0000
  C   C16       1.0  0.04277  0.30314  0.96397  1.0000
  C   C17       1.0  0.78573  0.64235  0.02314  1.0000
  C   C18       1.0  0.21427  0.35765  0.97686  1.0000
  C   C19       1.0  0.74206  0.56397  0.09438  1.0000
  C   C20       1.0  0.25794  0.43603  0.90562  1.0000
  C   C21       1.0  0.01083  0.78119  0.96840  1.0000
  C   C22       1.0  0.98917  0.21881  0.03160  1.0000
  C   C23       1.0  0.18180  0.82904  0.98611  1.0000
  C   C24       1.0  0.81820  0.17097  0.01389  1.0000
  C   C25       1.0  0.30753  0.78730  0.07361  1.0000
  C   C26       1.0  0.69247  0.21270  0.92639  1.0000
  C   C27       1.0  0.24514  0.91768  0.92066  1.0000
  C   C28       1.0  0.75486  0.08232  0.07934  1.0000
  C   C29       1.0  0.12505  0.08198  0.69432  1.0000
  C   C30       1.0  0.87495  0.91802  0.30569  1.0000
  S   S1        1.0  0.21728  0.16870  0.61327  1.0000
  S   S2        1.0  0.78272  0.83130  0.38672  1.0000
  N   N1        1.0  0.82503  0.46328  0.25858  1.0000
  N   N2        1.0  0.17497  0.53672  0.74142  1.0000
  N   N3        1.0  0.14350  0.96033  0.83943  1.0000
  N   N4        1.0  0.85650  0.03967  0.16057  1.0000
  N   N5        1.0  0.22133  0.03985  0.78274  1.0000
  N   N6        1.0  0.77867  0.96015  0.21726  1.0000
  N   N7        1.0  0.95760  0.05525  0.66902  1.0000
  N   N8        1.0  0.04239  0.94475  0.33099  1.0000
  Cl  Cl1       1.0  0.66680  0.91149  0.75583  1.0000
  Cl  Cl2       1.0  0.33320  0.08850  0.24417  1.0000
  Cl  Cl3       1.0  0.64212  0.19809  0.52965  1.0000
  Cl  Cl4       1.0  0.35788  0.80191  0.47035  1.0000
  O   O1        1.0  0.25048  0.71098  0.14226  1.0000
  O   O2        1.0  0.74953  0.28902  0.85774  1.0000
  O   O3        1.0  0.46382  0.81217  0.09322  1.0000
  O   O4        1.0  0.53619  0.18783  0.90677  1.0000
