data_image0
_chemical_formula_structural       Ag2H24C14S8O6F6
_chemical_formula_sum              "Ag2 H24 C14 S8 O6 F6"
_cell_length_a       8.38524
_cell_length_b       8.53564
_cell_length_c       9.34313
_cell_angle_alpha    81.9541
_cell_angle_beta     85.6134
_cell_angle_gamma    80.3971

_space_group_name_H-M_alt    "P 1"
_space_group_IT_number       1

loop_
  _space_group_symop_operation_xyz
  'x, y, z'

loop_
  _atom_site_type_symbol
  _atom_site_label
  _atom_site_symmetry_multiplicity
  _atom_site_fract_x
  _atom_site_fract_y
  _atom_site_fract_z
  _atom_site_occupancy
  Ag  Ag1       1.0  0.11084  0.10745  0.08334  1.0000
  Ag  Ag2       1.0  0.88916  0.89255  0.91666  1.0000
  H   H1        1.0  0.23609  0.81146  0.38346  1.0000
  H   H2        1.0  0.76391  0.18854  0.61654  1.0000
  H   H3        1.0  0.24003  0.00689  0.42841  1.0000
  H   H4        1.0  0.75996  0.99311  0.57159  1.0000
  H   H5        1.0  0.96777  0.23689  0.40914  1.0000
  H   H6        1.0  0.03223  0.76311  0.59086  1.0000
  H   H7        1.0  0.78136  0.19489  0.35160  1.0000
  H   H8        1.0  0.21864  0.80511  0.64840  1.0000
  H   H9        1.0  0.75116  0.55734  0.98326  1.0000
  H   H10       1.0  0.24884  0.44266  0.01674  1.0000
  H   H11       1.0  0.74044  0.39027  0.11778  1.0000
  H   H12       1.0  0.25956  0.60974  0.88222  1.0000
  H   H13       1.0  0.16149  0.39631  0.77430  1.0000
  H   H14       1.0  0.83851  0.60369  0.22570  1.0000
  H   H15       1.0  0.00279  0.56303  0.77953  1.0000
  H   H16       1.0  0.99721  0.43697  0.22047  1.0000
  H   H17       1.0  0.54379  0.00432  0.77688  1.0000
  H   H18       1.0  0.45620  0.99568  0.22312  1.0000
  H   H19       1.0  0.37408  0.15951  0.76470  1.0000
  H   H20       1.0  0.62591  0.84049  0.23530  1.0000
  H   H21       1.0  0.39879  0.74171  0.13436  1.0000
  H   H22       1.0  0.60120  0.25830  0.86564  1.0000
  H   H23       1.0  0.55917  0.75492  0.00078  1.0000
  H   H24       1.0  0.44083  0.24508  0.99923  1.0000
  C   C1        1.0  0.16502  0.91243  0.43264  1.0000
  C   C2        1.0  0.83498  0.08757  0.56736  1.0000
  C   C3        1.0  0.88949  0.14557  0.41247  1.0000
  C   C4        1.0  0.11051  0.85443  0.58753  1.0000
  C   C5        1.0  0.82370  0.46333  0.05418  1.0000
  C   C6        1.0  0.17630  0.53667  0.94583  1.0000
  C   C7        1.0  0.07949  0.46803  0.84613  1.0000
  C   C8        1.0  0.92051  0.53198  0.15388  1.0000
  C   C9        1.0  0.45400  0.07900  0.84061  1.0000
  C   C10       1.0  0.54600  0.92100  0.15939  1.0000
  C   C11       1.0  0.46811  0.82569  0.06669  1.0000
  C   C12       1.0  0.53189  0.17431  0.93331  1.0000
  C   C13       1.0  0.26581  0.41210  0.46117  1.0000
  C   C14       1.0  0.73419  0.58790  0.53883  1.0000
  S   S1        1.0  0.99560  0.98387  0.31695  1.0000
  S   S2        1.0  0.00441  0.01613  0.68305  1.0000
  S   S3        1.0  0.94594  0.33293  0.93636  1.0000
  S   S4        1.0  0.05406  0.66707  0.06364  1.0000
  S   S5        1.0  0.32528  0.94612  0.94282  1.0000
  S   S6        1.0  0.67472  0.05389  0.05718  1.0000
  S   S7        1.0  0.39136  0.32796  0.30823  1.0000
  S   S8        1.0  0.60864  0.67204  0.69177  1.0000
  O   O1        1.0  0.45264  0.46460  0.22469  1.0000
  O   O2        1.0  0.54736  0.53540  0.77531  1.0000
  O   O3        1.0  0.51043  0.20503  0.38089  1.0000
  O   O4        1.0  0.48957  0.79498  0.61911  1.0000
  O   O5        1.0  0.26943  0.26593  0.23615  1.0000
  O   O6        1.0  0.73058  0.73407  0.76385  1.0000
  F   F1        1.0  0.19142  0.29542  0.54122  1.0000
  F   F2        1.0  0.80858  0.70459  0.45878  1.0000
  F   F3        1.0  0.35319  0.46926  0.55206  1.0000
  F   F4        1.0  0.64682  0.53074  0.44793  1.0000
  F   F5        1.0  0.14775  0.53349  0.41213  1.0000
  F   F6        1.0  0.85226  0.46651  0.58787  1.0000
