data_image0
_chemical_formula_structural       Ag4H32C16S8N4O8
_chemical_formula_sum              "Ag4 H32 C16 S8 N4 O8"
_cell_length_a       7.42678
_cell_length_b       9.60505
_cell_length_c       10.9526
_cell_angle_alpha    103.25
_cell_angle_beta     90
_cell_angle_gamma    89.9999

_space_group_name_H-M_alt    "P 1"
_space_group_IT_number       1

loop_
  _space_group_symop_operation_xyz
  'x, y, z'

loop_
  _atom_site_type_symbol
  _atom_site_label
  _atom_site_symmetry_multiplicity
  _atom_site_fract_x
  _atom_site_fract_y
  _atom_site_fract_z
  _atom_site_occupancy
  Ag  Ag1       1.0  0.12354  0.35099  0.71741  1.0000
  Ag  Ag2       1.0  0.37646  0.85099  0.71742  1.0000
  Ag  Ag3       1.0  0.87646  0.64901  0.28258  1.0000
  Ag  Ag4       1.0  0.62354  0.14902  0.28259  1.0000
  H   H1        1.0  0.19753  0.29667  0.36580  1.0000
  H   H2        1.0  0.30247  0.79667  0.36580  1.0000
  H   H3        1.0  0.80247  0.70333  0.63419  1.0000
  H   H4        1.0  0.69753  0.20333  0.63420  1.0000
  H   H5        1.0  0.01026  0.38432  0.31668  1.0000
  H   H6        1.0  0.48974  0.88432  0.31668  1.0000
  H   H7        1.0  0.98974  0.61568  0.68332  1.0000
  H   H8        1.0  0.51026  0.11568  0.68332  1.0000
  H   H9        1.0  0.72526  0.47787  0.47188  1.0000
  H   H10       1.0  0.77474  0.97787  0.47188  1.0000
  H   H11       1.0  0.27474  0.52213  0.52811  1.0000
  H   H12       1.0  0.22526  0.02213  0.52811  1.0000
  H   H13       1.0  0.71967  0.45250  0.62829  1.0000
  H   H14       1.0  0.78033  0.95250  0.62830  1.0000
  H   H15       1.0  0.28033  0.54750  0.37170  1.0000
  H   H16       1.0  0.21967  0.04750  0.37170  1.0000
  H   H17       1.0  0.74928  0.58161  0.86476  1.0000
  H   H18       1.0  0.75072  0.08162  0.86476  1.0000
  H   H19       1.0  0.25072  0.41839  0.13524  1.0000
  H   H20       1.0  0.24928  0.91839  0.13524  1.0000
  H   H21       1.0  0.73458  0.56604  0.02252  1.0000
  H   H22       1.0  0.76541  0.06604  0.02253  1.0000
  H   H23       1.0  0.26542  0.43396  0.97747  1.0000
  H   H24       1.0  0.23458  0.93397  0.97748  1.0000
  H   H25       1.0  0.92026  0.35278  0.10281  1.0000
  H   H26       1.0  0.57974  0.85278  0.10281  1.0000
  H   H27       1.0  0.07974  0.64722  0.89719  1.0000
  H   H28       1.0  0.42026  0.14722  0.89719  1.0000
  H   H29       1.0  0.06203  0.23214  0.99797  1.0000
  H   H30       1.0  0.43796  0.73214  0.99797  1.0000
  H   H31       1.0  0.93796  0.76786  0.00203  1.0000
  H   H32       1.0  0.56204  0.26787  0.00203  1.0000
  C   C1        1.0  0.09822  0.38203  0.39677  1.0000
  C   C2        1.0  0.40178  0.88203  0.39676  1.0000
  C   C3        1.0  0.90178  0.61796  0.60324  1.0000
  C   C4        1.0  0.59822  0.11796  0.60324  1.0000
  C   C5        1.0  0.80758  0.47610  0.55481  1.0000
  C   C6        1.0  0.69242  0.97610  0.55481  1.0000
  C   C7        1.0  0.19241  0.52390  0.44519  1.0000
  C   C8        1.0  0.30759  0.02390  0.44519  1.0000
  C   C9        1.0  0.82674  0.55629  0.94234  1.0000
  C   C10       1.0  0.67326  0.05629  0.94234  1.0000
  C   C11       1.0  0.17326  0.44371  0.05766  1.0000
  C   C12       1.0  0.32674  0.94371  0.05766  1.0000
  C   C13       1.0  0.01443  0.34322  0.02380  1.0000
  C   C14       1.0  0.48556  0.84322  0.02381  1.0000
  C   C15       1.0  0.98556  0.65677  0.97619  1.0000
  C   C16       1.0  0.51444  0.15678  0.97620  1.0000
  S   S1        1.0  0.96066  0.32464  0.51340  1.0000
  S   S2        1.0  0.53934  0.82464  0.51340  1.0000
  S   S3        1.0  0.03934  0.67535  0.48660  1.0000
  S   S4        1.0  0.46066  0.17535  0.48660  1.0000
  S   S5        1.0  0.88723  0.36919  0.88920  1.0000
  S   S6        1.0  0.61277  0.86919  0.88921  1.0000
  S   S7        1.0  0.11277  0.63081  0.11079  1.0000
  S   S8        1.0  0.38723  0.13081  0.11080  1.0000
  N   N1        1.0  0.45328  0.53437  0.77113  1.0000
  N   N2        1.0  0.04672  0.03437  0.77113  1.0000
  N   N3        1.0  0.54671  0.46563  0.22887  1.0000
  N   N4        1.0  0.95330  0.96562  0.22887  1.0000
  O   O1        1.0  0.43258  0.40473  0.77566  1.0000
  O   O2        1.0  0.06742  0.90473  0.77566  1.0000
  O   O3        1.0  0.56742  0.59529  0.22433  1.0000
  O   O4        1.0  0.93259  0.09529  0.22434  1.0000
  O   O5        1.0  0.31158  0.59581  0.74396  1.0000
  O   O6        1.0  0.18842  0.09581  0.74396  1.0000
  O   O7        1.0  0.68842  0.40420  0.25604  1.0000
  O   O8        1.0  0.81157  0.90419  0.25605  1.0000
