data_image0
_chemical_formula_structural       Ag8H40C16S12O20
_chemical_formula_sum              "Ag8 H40 C16 S12 O20"
_cell_length_a       6.87764
_cell_length_b       9.59024
_cell_length_c       14.704
_cell_angle_alpha    89.9988
_cell_angle_beta     90.0001
_cell_angle_gamma    89.9999

_space_group_name_H-M_alt    "P 1"
_space_group_IT_number       1

loop_
  _space_group_symop_operation_xyz
  'x, y, z'

loop_
  _atom_site_type_symbol
  _atom_site_label
  _atom_site_symmetry_multiplicity
  _atom_site_fract_x
  _atom_site_fract_y
  _atom_site_fract_z
  _atom_site_occupancy
  Ag  Ag1       1.0  0.13645  0.75124  0.62202  1.0000
  Ag  Ag2       1.0  0.36354  0.25125  0.62201  1.0000
  Ag  Ag3       1.0  0.13647  0.75123  0.87799  1.0000
  Ag  Ag4       1.0  0.63647  0.74876  0.12201  1.0000
  Ag  Ag5       1.0  0.86354  0.24875  0.37798  1.0000
  Ag  Ag6       1.0  0.63647  0.74876  0.37799  1.0000
  Ag  Ag7       1.0  0.86356  0.24878  0.12201  1.0000
  Ag  Ag8       1.0  0.36354  0.25122  0.87799  1.0000
  H   H1        1.0  0.68730  0.56592  0.59109  1.0000
  H   H2        1.0  0.81269  0.06592  0.59109  1.0000
  H   H3        1.0  0.68732  0.56592  0.90891  1.0000
  H   H4        1.0  0.18731  0.93408  0.09109  1.0000
  H   H5        1.0  0.31268  0.43408  0.40890  1.0000
  H   H6        1.0  0.18731  0.93407  0.40891  1.0000
  H   H7        1.0  0.31269  0.43407  0.09108  1.0000
  H   H8        1.0  0.81269  0.06592  0.90891  1.0000
  H   H9        1.0  0.70216  0.47692  0.48420  1.0000
  H   H10       1.0  0.79782  0.97692  0.48420  1.0000
  H   H11       1.0  0.70217  0.47692  0.01579  1.0000
  H   H12       1.0  0.20217  0.02308  0.98420  1.0000
  H   H13       1.0  0.29783  0.52308  0.51580  1.0000
  H   H14       1.0  0.20216  0.02307  0.51580  1.0000
  H   H15       1.0  0.29782  0.52308  0.98420  1.0000
  H   H16       1.0  0.79783  0.97692  0.01580  1.0000
  H   H17       1.0  0.00662  0.46024  0.63993  1.0000
  H   H18       1.0  0.49337  0.96024  0.63993  1.0000
  H   H19       1.0  0.00662  0.46024  0.86008  1.0000
  H   H20       1.0  0.50663  0.03975  0.13992  1.0000
  H   H21       1.0  0.99337  0.53976  0.36007  1.0000
  H   H22       1.0  0.50661  0.03975  0.36007  1.0000
  H   H23       1.0  0.99338  0.53975  0.13992  1.0000
  H   H24       1.0  0.49337  0.96025  0.86008  1.0000
  H   H25       1.0  0.82913  0.33130  0.61455  1.0000
  H   H26       1.0  0.67086  0.83130  0.61455  1.0000
  H   H27       1.0  0.82914  0.33130  0.88545  1.0000
  H   H28       1.0  0.32914  0.16870  0.11455  1.0000
  H   H29       1.0  0.17086  0.66870  0.38545  1.0000
  H   H30       1.0  0.32912  0.16869  0.38545  1.0000
  H   H31       1.0  0.17086  0.66869  0.11455  1.0000
  H   H32       1.0  0.67086  0.83130  0.88546  1.0000
  H   H33       1.0  0.78893  0.67609  0.75001  1.0000
  H   H34       1.0  0.71104  0.17609  0.75001  1.0000
  H   H35       1.0  0.28896  0.82391  0.24999  1.0000
  H   H36       1.0  0.21106  0.32393  0.24999  1.0000
  H   H37       1.0  0.84330  0.84266  0.75000  1.0000
  H   H38       1.0  0.65672  0.34265  0.75000  1.0000
  H   H39       1.0  0.34329  0.65735  0.25000  1.0000
  H   H40       1.0  0.15672  0.15736  0.25000  1.0000
  C   C1        1.0  0.78692  0.52220  0.54015  1.0000
  C   C2        1.0  0.71307  0.02222  0.54015  1.0000
  C   C3        1.0  0.78693  0.52221  0.95984  1.0000
  C   C4        1.0  0.28693  0.97779  0.04015  1.0000
  C   C5        1.0  0.21307  0.47778  0.45985  1.0000
  C   C6        1.0  0.28692  0.97778  0.45985  1.0000
  C   C7        1.0  0.21307  0.47779  0.04015  1.0000
  C   C8        1.0  0.71308  0.02222  0.95985  1.0000
  C   C9        1.0  0.91710  0.41573  0.58529  1.0000
  C   C10       1.0  0.58290  0.91574  0.58529  1.0000
  C   C11       1.0  0.91708  0.41575  0.91470  1.0000
  C   C12       1.0  0.41710  0.08427  0.08529  1.0000
  C   C13       1.0  0.08290  0.58426  0.41471  1.0000
  C   C14       1.0  0.41708  0.08425  0.41470  1.0000
  C   C15       1.0  0.08290  0.58426  0.08529  1.0000
  C   C16       1.0  0.58290  0.91574  0.91471  1.0000
  S   S1        1.0  0.42610  0.56371  0.75001  1.0000
  S   S2        1.0  0.07391  0.06372  0.75001  1.0000
  S   S3        1.0  0.92609  0.93629  0.24999  1.0000
  S   S4        1.0  0.57391  0.43630  0.24999  1.0000
  S   S5        1.0  0.91927  0.67004  0.49399  1.0000
  S   S6        1.0  0.58073  0.17002  0.49399  1.0000
  S   S7        1.0  0.91928  0.67004  0.00601  1.0000
  S   S8        1.0  0.41929  0.82997  0.99400  1.0000
  S   S9        1.0  0.08072  0.32997  0.50601  1.0000
  S   S10       1.0  0.41927  0.82996  0.50601  1.0000
  S   S11       1.0  0.08073  0.32996  0.99399  1.0000
  S   S12       1.0  0.58072  0.17003  0.00601  1.0000
  O   O1        1.0  0.38937  0.71757  0.75002  1.0000
  O   O2        1.0  0.11059  0.21758  0.75000  1.0000
  O   O3        1.0  0.88941  0.78243  0.24999  1.0000
  O   O4        1.0  0.61064  0.28244  0.25000  1.0000
  O   O5        1.0  0.34010  0.50116  0.66631  1.0000
  O   O6        1.0  0.15990  0.00116  0.66631  1.0000
  O   O7        1.0  0.34009  0.50113  0.83371  1.0000
  O   O8        1.0  0.84011  0.99885  0.16629  1.0000
  O   O9        1.0  0.65992  0.49886  0.33369  1.0000
  O   O10       1.0  0.84010  0.99885  0.33369  1.0000
  O   O11       1.0  0.65991  0.49885  0.16628  1.0000
  O   O12       1.0  0.15990  0.00118  0.83371  1.0000
  O   O13       1.0  0.64273  0.53720  0.75001  1.0000
  O   O14       1.0  0.85726  0.03719  0.75001  1.0000
  O   O15       1.0  0.14274  0.96281  0.24999  1.0000
  O   O16       1.0  0.35728  0.46281  0.24999  1.0000
  O   O17       1.0  0.89659  0.74676  0.74999  1.0000
  O   O18       1.0  0.60341  0.24675  0.74999  1.0000
  O   O19       1.0  0.39660  0.75326  0.25001  1.0000
  O   O20       1.0  0.10341  0.25325  0.25001  1.0000
