data_image0
_chemical_formula_structural       Sr2H36C24O28
_chemical_formula_sum              "Sr2 H36 C24 O28"
_cell_length_a       6.36464
_cell_length_b       8.27511
_cell_length_c       16.2964
_cell_angle_alpha    90.0002
_cell_angle_beta     89.9998
_cell_angle_gamma    108.896

_space_group_name_H-M_alt    "P 1"
_space_group_IT_number       1

loop_
  _space_group_symop_operation_xyz
  'x, y, z'

loop_
  _atom_site_type_symbol
  _atom_site_label
  _atom_site_symmetry_multiplicity
  _atom_site_fract_x
  _atom_site_fract_y
  _atom_site_fract_z
  _atom_site_occupancy
  Sr  Sr1       1.0  0.97115  0.22523  0.11015  1.0000
  Sr  Sr2       1.0  0.02885  0.77477  0.61015  1.0000
  H   H1        1.0  0.38026  0.53742  0.17840  1.0000
  H   H2        1.0  0.61974  0.46259  0.67840  1.0000
  H   H3        1.0  0.39654  0.56600  0.08076  1.0000
  H   H4        1.0  0.60346  0.43400  0.58076  1.0000
  H   H5        1.0  0.50944  0.01123  0.20166  1.0000
  H   H6        1.0  0.49055  0.98877  0.70167  1.0000
  H   H7        1.0  0.44462  0.07018  0.11633  1.0000
  H   H8        1.0  0.55538  0.92983  0.61633  1.0000
  H   H9        1.0  0.41318  0.79041  0.29754  1.0000
  H   H10       1.0  0.58682  0.20959  0.79755  1.0000
  H   H11       1.0  0.59693  0.76002  0.50567  1.0000
  H   H12       1.0  0.40307  0.23998  0.00567  1.0000
  H   H13       1.0  0.28248  0.15432  0.53787  1.0000
  H   H14       1.0  0.71752  0.84568  0.03787  1.0000
  H   H15       1.0  0.73565  0.78544  0.37634  1.0000
  H   H16       1.0  0.26434  0.21456  0.87634  1.0000
  H   H17       1.0  0.66406  0.02842  0.44230  1.0000
  H   H18       1.0  0.33594  0.97158  0.94230  1.0000
  H   H19       1.0  0.06105  0.22477  0.45359  1.0000
  H   H20       1.0  0.93895  0.77523  0.95359  1.0000
  H   H21       1.0  0.89475  0.20609  0.54284  1.0000
  H   H22       1.0  0.10526  0.79391  0.04284  1.0000
  H   H23       1.0  0.27790  0.65398  0.44629  1.0000
  H   H24       1.0  0.72211  0.34602  0.94630  1.0000
  H   H25       1.0  0.88858  0.25271  0.30077  1.0000
  H   H26       1.0  0.11142  0.74729  0.80077  1.0000
  H   H27       1.0  0.64660  0.46504  0.11403  1.0000
  H   H28       1.0  0.35340  0.53496  0.61403  1.0000
  H   H29       1.0  0.49904  0.30132  0.24688  1.0000
  H   H30       1.0  0.50096  0.69867  0.74688  1.0000
  H   H31       1.0  0.91970  0.55276  0.32417  1.0000
  H   H32       1.0  0.08030  0.44724  0.82417  1.0000
  H   H33       1.0  0.80160  0.68119  0.19969  1.0000
  H   H34       1.0  0.19840  0.31881  0.69969  1.0000
  H   H35       1.0  0.05940  0.64283  0.18862  1.0000
  H   H36       1.0  0.94060  0.35717  0.68862  1.0000
  C   C1        1.0  0.10235  0.01554  0.28367  1.0000
  C   C2        1.0  0.89764  0.98445  0.78367  1.0000
  C   C3        1.0  0.21250  0.92039  0.32991  1.0000
  C   C4        1.0  0.78750  0.07960  0.82992  1.0000
  C   C5        1.0  0.08362  0.84895  0.39763  1.0000
  C   C6        1.0  0.91638  0.15105  0.89762  1.0000
  C   C7        1.0  0.87482  0.90027  0.39241  1.0000
  C   C8        1.0  0.12518  0.09972  0.89241  1.0000
  C   C9        1.0  0.79906  0.98472  0.46557  1.0000
  C   C10       1.0  0.20094  0.01528  0.96557  1.0000
  C   C11       1.0  0.97562  0.13675  0.50281  1.0000
  C   C12       1.0  0.02438  0.86325  0.00281  1.0000
  C   C13       1.0  0.52706  0.36038  0.43327  1.0000
  C   C14       1.0  0.47294  0.63962  0.93327  1.0000
  C   C15       1.0  0.46180  0.50207  0.40745  1.0000
  C   C16       1.0  0.53820  0.49793  0.90745  1.0000
  C   C17       1.0  0.48349  0.51690  0.32272  1.0000
  C   C18       1.0  0.51651  0.48310  0.82272  1.0000
  C   C19       1.0  0.59181  0.38817  0.29506  1.0000
  C   C20       1.0  0.40819  0.61183  0.79506  1.0000
  C   C21       1.0  0.83750  0.47143  0.27201  1.0000
  C   C22       1.0  0.16250  0.52857  0.77201  1.0000
  C   C23       1.0  0.87931  0.58077  0.19474  1.0000
  C   C24       1.0  0.12069  0.41923  0.69474  1.0000
  O   O1        1.0  0.35749  0.47588  0.12428  1.0000
  O   O2        1.0  0.64251  0.52412  0.62428  1.0000
  O   O3        1.0  0.56908  0.05314  0.14684  1.0000
  O   O4        1.0  0.43092  0.94687  0.64685  1.0000
  O   O5        1.0  0.15515  0.09255  0.21752  1.0000
  O   O6        1.0  0.84484  0.90744  0.71752  1.0000
  O   O7        1.0  0.41400  0.91363  0.30486  1.0000
  O   O8        1.0  0.58600  0.08637  0.80487  1.0000
  O   O9        1.0  0.10784  0.74400  0.45316  1.0000
  O   O10       1.0  0.89216  0.25600  0.95316  1.0000
  O   O11       1.0  0.90850  0.01423  0.32237  1.0000
  O   O12       1.0  0.09150  0.98577  0.82237  1.0000
  O   O13       1.0  0.71722  0.85999  0.52957  1.0000
  O   O14       1.0  0.28278  0.14001  0.02957  1.0000
  O   O15       1.0  0.12906  0.07939  0.54915  1.0000
  O   O16       1.0  0.87094  0.92061  0.04915  1.0000
  O   O17       1.0  0.52961  0.29745  0.50312  1.0000
  O   O18       1.0  0.47039  0.70256  0.00312  1.0000
  O   O19       1.0  0.40038  0.60192  0.46301  1.0000
  O   O20       1.0  0.59963  0.39808  0.96301  1.0000
  O   O21       1.0  0.43539  0.61956  0.27239  1.0000
  O   O22       1.0  0.56461  0.38043  0.77239  1.0000
  O   O23       1.0  0.59414  0.28603  0.36763  1.0000
  O   O24       1.0  0.40586  0.71397  0.86763  1.0000
  O   O25       1.0  0.93745  0.34158  0.25859  1.0000
  O   O26       1.0  0.06256  0.65842  0.75859  1.0000
  O   O27       1.0  0.80619  0.48014  0.12233  1.0000
  O   O28       1.0  0.19381  0.51986  0.62233  1.0000
