data_image0
_chemical_formula_structural       Sr4H20C12O22
_chemical_formula_sum              "Sr4 H20 C12 O22"
_cell_length_a       7.15912
_cell_length_b       8.02116
_cell_length_c       11.588
_cell_angle_alpha    104.376
_cell_angle_beta     90.0122
_cell_angle_gamma    116.5

_space_group_name_H-M_alt    "P 1"
_space_group_IT_number       1

loop_
  _space_group_symop_operation_xyz
  'x, y, z'

loop_
  _atom_site_type_symbol
  _atom_site_label
  _atom_site_symmetry_multiplicity
  _atom_site_fract_x
  _atom_site_fract_y
  _atom_site_fract_z
  _atom_site_occupancy
  Sr  Sr1       1.0  0.22750  0.82623  0.58078  1.0000
  Sr  Sr2       1.0  0.40121  0.17369  0.91920  1.0000
  Sr  Sr3       1.0  0.77250  0.17377  0.41922  1.0000
  Sr  Sr4       1.0  0.59879  0.82631  0.08080  1.0000
  H   H1        1.0  0.60004  0.90920  0.77787  1.0000
  H   H2        1.0  0.69082  0.09065  0.72207  1.0000
  H   H3        1.0  0.39996  0.09080  0.22212  1.0000
  H   H4        1.0  0.30917  0.90935  0.27794  1.0000
  H   H5        1.0  0.94780  0.02200  0.63903  1.0000
  H   H6        1.0  0.92578  0.97799  0.86094  1.0000
  H   H7        1.0  0.05220  0.97800  0.36097  1.0000
  H   H8        1.0  0.07422  0.02201  0.13906  1.0000
  H   H9        1.0  0.77255  0.83661  0.55336  1.0000
  H   H10       1.0  0.93585  0.16330  0.94668  1.0000
  H   H11       1.0  0.22745  0.16339  0.44664  1.0000
  H   H12       1.0  0.06415  0.83670  0.05332  1.0000
  H   H13       1.0  0.95568  0.43095  0.86341  1.0000
  H   H14       1.0  0.52491  0.56903  0.63648  1.0000
  H   H15       1.0  0.04432  0.56905  0.13659  1.0000
  H   H16       1.0  0.47509  0.43098  0.36352  1.0000
  H   H17       1.0  0.20734  0.45729  0.84314  1.0000
  H   H18       1.0  0.75003  0.54244  0.65695  1.0000
  H   H19       1.0  0.79266  0.54271  0.15686  1.0000
  H   H20       1.0  0.24997  0.45756  0.34305  1.0000
  C   C1        1.0  0.17145  0.71469  0.85982  1.0000
  C   C2        1.0  0.45664  0.28522  0.64015  1.0000
  C   C3        1.0  0.82855  0.28531  0.14018  1.0000
  C   C4        1.0  0.54336  0.71478  0.35985  1.0000
  C   C5        1.0  0.08968  0.49699  0.81512  1.0000
  C   C6        1.0  0.59263  0.50290  0.68486  1.0000
  C   C7        1.0  0.91032  0.50301  0.18488  1.0000
  C   C8        1.0  0.40737  0.49710  0.31514  1.0000
  C   C9        1.0  0.02411  0.40187  0.68116  1.0000
  C   C10       1.0  0.62212  0.59796  0.81881  1.0000
  C   C11       1.0  0.97589  0.59813  0.31884  1.0000
  C   C12       1.0  0.37788  0.40204  0.18119  1.0000
  O   O1        1.0  0.56243  0.99993  0.74995  1.0000
  O   O2        1.0  0.43757  0.00007  0.25005  1.0000
  O   O3        1.0  0.90647  0.88391  0.60375  1.0000
  O   O4        1.0  0.02254  0.11603  0.89636  1.0000
  O   O5        1.0  0.09353  0.11609  0.39625  1.0000
  O   O6        1.0  0.97746  0.88397  0.10364  1.0000
  O   O7        1.0  0.13773  0.80595  0.79437  1.0000
  O   O8        1.0  0.33163  0.19395  0.70556  1.0000
  O   O9        1.0  0.86227  0.19405  0.20563  1.0000
  O   O10       1.0  0.66837  0.80605  0.29444  1.0000
  O   O11       1.0  0.26630  0.79938  0.96773  1.0000
  O   O12       1.0  0.46689  0.20052  0.53228  1.0000
  O   O13       1.0  0.73370  0.20062  0.03227  1.0000
  O   O14       1.0  0.53311  0.79948  0.46772  1.0000
  O   O15       1.0  0.87247  0.22864  0.64843  1.0000
  O   O16       1.0  0.64366  0.77117  0.85156  1.0000
  O   O17       1.0  0.12753  0.77136  0.35157  1.0000
  O   O18       1.0  0.35634  0.22883  0.14844  1.0000
  O   O19       1.0  0.11824  0.48883  0.60493  1.0000
  O   O20       1.0  0.62930  0.51092  0.89499  1.0000
  O   O21       1.0  0.88176  0.51117  0.39507  1.0000
  O   O22       1.0  0.37070  0.48908  0.10501  1.0000
