data_image0
_chemical_formula_structural       Sr4H24C28O16
_chemical_formula_sum              "Sr4 H24 C28 O16"
_cell_length_a       5.06529
_cell_length_b       6.97016
_cell_length_c       22.7459
_cell_angle_alpha    89.9991
_cell_angle_beta     90.0004
_cell_angle_gamma    109.611

_space_group_name_H-M_alt    "P 1"
_space_group_IT_number       1

loop_
  _space_group_symop_operation_xyz
  'x, y, z'

loop_
  _atom_site_type_symbol
  _atom_site_label
  _atom_site_symmetry_multiplicity
  _atom_site_fract_x
  _atom_site_fract_y
  _atom_site_fract_z
  _atom_site_occupancy
  Sr  Sr1       1.0  0.79398  0.20319  0.97528  1.0000
  Sr  Sr2       1.0  0.70602  0.29681  0.47528  1.0000
  Sr  Sr3       1.0  0.20602  0.79681  0.02472  1.0000
  Sr  Sr4       1.0  0.29398  0.70319  0.52472  1.0000
  H   H1        1.0  0.13975  0.91255  0.81638  1.0000
  H   H2        1.0  0.36024  0.58745  0.31637  1.0000
  H   H3        1.0  0.86024  0.08745  0.18362  1.0000
  H   H4        1.0  0.63976  0.41255  0.68363  1.0000
  H   H5        1.0  0.15018  0.66094  0.73966  1.0000
  H   H6        1.0  0.34980  0.83907  0.23966  1.0000
  H   H7        1.0  0.84981  0.33907  0.26034  1.0000
  H   H8        1.0  0.65020  0.16093  0.76034  1.0000
  H   H9        1.0  0.41633  0.42370  0.75716  1.0000
  H   H10       1.0  0.08367  0.07631  0.25716  1.0000
  H   H11       1.0  0.58367  0.57631  0.24284  1.0000
  H   H12       1.0  0.91633  0.92369  0.74284  1.0000
  H   H13       1.0  0.68420  0.45071  0.85064  1.0000
  H   H14       1.0  0.81581  0.04930  0.35064  1.0000
  H   H15       1.0  0.31581  0.54929  0.14935  1.0000
  H   H16       1.0  0.18419  0.95070  0.64936  1.0000
  H   H17       1.0  0.17187  0.28863  0.86099  1.0000
  H   H18       1.0  0.32813  0.21137  0.36099  1.0000
  H   H19       1.0  0.82814  0.71137  0.13901  1.0000
  H   H20       1.0  0.67187  0.78863  0.63901  1.0000
  H   H21       1.0  0.18785  0.09280  0.89527  1.0000
  H   H22       1.0  0.31215  0.40720  0.39527  1.0000
  H   H23       1.0  0.81215  0.90720  0.10473  1.0000
  H   H24       1.0  0.68785  0.59280  0.60473  1.0000
  C   C1        1.0  0.55226  0.68739  0.88761  1.0000
  C   C2        1.0  0.94774  0.81262  0.38761  1.0000
  C   C3        1.0  0.44775  0.31261  0.11239  1.0000
  C   C4        1.0  0.05225  0.18738  0.61239  1.0000
  C   C5        1.0  0.39740  0.82338  0.87821  1.0000
  C   C6        1.0  0.10260  0.67662  0.37821  1.0000
  C   C7        1.0  0.60261  0.17662  0.12179  1.0000
  C   C8        1.0  0.89740  0.32338  0.62179  1.0000
  C   C9        1.0  0.25818  0.80978  0.82331  1.0000
  C   C10       1.0  0.24180  0.69024  0.32331  1.0000
  C   C11       1.0  0.74182  0.19023  0.17669  1.0000
  C   C12       1.0  0.75819  0.30976  0.67669  1.0000
  C   C13       1.0  0.26370  0.66922  0.78087  1.0000
  C   C14       1.0  0.23628  0.83079  0.28087  1.0000
  C   C15       1.0  0.73630  0.33079  0.21912  1.0000
  C   C16       1.0  0.76371  0.16921  0.71913  1.0000
  C   C17       1.0  0.41368  0.53496  0.79046  1.0000
  C   C18       1.0  0.08631  0.96506  0.29045  1.0000
  C   C19       1.0  0.58632  0.46505  0.20954  1.0000
  C   C20       1.0  0.91368  0.03494  0.70955  1.0000
  C   C21       1.0  0.55828  0.54808  0.84291  1.0000
  C   C22       1.0  0.94172  0.95192  0.34292  1.0000
  C   C23       1.0  0.44174  0.45193  0.15708  1.0000
  C   C24       1.0  0.05827  0.04807  0.65708  1.0000
  C   C25       1.0  0.70850  0.68596  0.94216  1.0000
  C   C26       1.0  0.79150  0.81404  0.44216  1.0000
  C   C27       1.0  0.29151  0.31404  0.05784  1.0000
  C   C28       1.0  0.20850  0.18596  0.55784  1.0000
  O   O1        1.0  0.83466  0.55570  0.94873  1.0000
  O   O2        1.0  0.66535  0.94430  0.44874  1.0000
  O   O3        1.0  0.16535  0.44430  0.05126  1.0000
  O   O4        1.0  0.33465  0.05569  0.55127  1.0000
  O   O5        1.0  0.72381  0.81669  0.98354  1.0000
  O   O6        1.0  0.77619  0.68330  0.48354  1.0000
  O   O7        1.0  0.27620  0.18330  0.01646  1.0000
  O   O8        1.0  0.22381  0.31669  0.51647  1.0000
  O   O9        1.0  0.37430  0.95633  0.91793  1.0000
  O   O10       1.0  0.12570  0.54368  0.41793  1.0000
  O   O11       1.0  0.62570  0.04367  0.08207  1.0000
  O   O12       1.0  0.87431  0.45633  0.58207  1.0000
  O   O13       1.0  0.05993  0.17327  0.88488  1.0000
  O   O14       1.0  0.44007  0.32673  0.38488  1.0000
  O   O15       1.0  0.94007  0.82673  0.11512  1.0000
  O   O16       1.0  0.55993  0.67327  0.61512  1.0000
