data_image0
_chemical_formula_structural       Ag2H16C10S6N2
_chemical_formula_sum              "Ag2 H16 C10 S6 N2"
_cell_length_a       5.09194
_cell_length_b       6.44766
_cell_length_c       12.9423
_cell_angle_alpha    90.0009
_cell_angle_beta     89.9995
_cell_angle_gamma    108.569

_space_group_name_H-M_alt    "P 1"
_space_group_IT_number       1

loop_
  _space_group_symop_operation_xyz
  'x, y, z'

loop_
  _atom_site_type_symbol
  _atom_site_label
  _atom_site_symmetry_multiplicity
  _atom_site_fract_x
  _atom_site_fract_y
  _atom_site_fract_z
  _atom_site_occupancy
  Ag  Ag1       1.0  0.88463  0.00818  0.75000  1.0000
  Ag  Ag2       1.0  0.11539  0.99181  0.25000  1.0000
  H   H1        1.0  0.15785  0.75444  0.45493  1.0000
  H   H2        1.0  0.15789  0.75445  0.04507  1.0000
  H   H3        1.0  0.84213  0.24555  0.54508  1.0000
  H   H4        1.0  0.84213  0.24557  0.95493  1.0000
  H   H5        1.0  0.98809  0.61953  0.56917  1.0000
  H   H6        1.0  0.98813  0.61955  0.93083  1.0000
  H   H7        1.0  0.01189  0.38047  0.43083  1.0000
  H   H8        1.0  0.01189  0.38047  0.06917  1.0000
  H   H9        1.0  0.38521  0.21043  0.45381  1.0000
  H   H10       1.0  0.38525  0.21045  0.04620  1.0000
  H   H11       1.0  0.61475  0.78956  0.54619  1.0000
  H   H12       1.0  0.61479  0.78956  0.95380  1.0000
  H   H13       1.0  0.35429  0.36268  0.56669  1.0000
  H   H14       1.0  0.35428  0.36269  0.93332  1.0000
  H   H15       1.0  0.64569  0.63731  0.43331  1.0000
  H   H16       1.0  0.64574  0.63732  0.06668  1.0000
  C   C1        1.0  0.02412  0.76502  0.52011  1.0000
  C   C2        1.0  0.02415  0.76505  0.97988  1.0000
  C   C3        1.0  0.97587  0.23496  0.47988  1.0000
  C   C4        1.0  0.97586  0.23497  0.02013  1.0000
  C   C5        1.0  0.24982  0.21931  0.51870  1.0000
  C   C6        1.0  0.24987  0.21936  0.98131  1.0000
  C   C7        1.0  0.75015  0.78064  0.48132  1.0000
  C   C8        1.0  0.75017  0.78066  0.01869  1.0000
  C   C9        1.0  0.64791  0.44256  0.74999  1.0000
  C   C10       1.0  0.35209  0.55744  0.25000  1.0000
  S   S1        1.0  0.21696  0.98799  0.60281  1.0000
  S   S2        1.0  0.21698  0.98803  0.89718  1.0000
  S   S3        1.0  0.78301  0.01197  0.39718  1.0000
  S   S4        1.0  0.78304  0.01199  0.10282  1.0000
  S   S5        1.0  0.49459  0.63059  0.75000  1.0000
  S   S6        1.0  0.50541  0.36940  0.25000  1.0000
  N   N1        1.0  0.74946  0.30076  0.74999  1.0000
  N   N2        1.0  0.25054  0.69925  0.24999  1.0000
