data_image0
_chemical_formula_structural       Zn2H24C30N12O6
_chemical_formula_sum              "Zn2 H24 C30 N12 O6"
_cell_length_a       7.80096
_cell_length_b       8.77967
_cell_length_c       12.42
_cell_angle_alpha    86.9233
_cell_angle_beta     81.0952
_cell_angle_gamma    85.9657

_space_group_name_H-M_alt    "P 1"
_space_group_IT_number       1

loop_
  _space_group_symop_operation_xyz
  'x, y, z'

loop_
  _atom_site_type_symbol
  _atom_site_label
  _atom_site_symmetry_multiplicity
  _atom_site_fract_x
  _atom_site_fract_y
  _atom_site_fract_z
  _atom_site_occupancy
  Zn  Zn1       1.0  1.00000  0.50000  0.50000  1.0000
  Zn  Zn2       1.0  0.00000  1.00000  1.00000  1.0000
  H   H1        1.0  0.98474  0.74174  0.68606  1.0000
  H   H2        1.0  0.01527  0.25825  0.31394  1.0000
  H   H3        1.0  0.05536  0.63504  0.80007  1.0000
  H   H4        1.0  0.94464  0.36496  0.19993  1.0000
  H   H5        1.0  0.84178  0.61809  0.76895  1.0000
  H   H6        1.0  0.15822  0.38191  0.23105  1.0000
  H   H7        1.0  0.40215  0.10131  0.94417  1.0000
  H   H8        1.0  0.59786  0.89869  0.05583  1.0000
  H   H9        1.0  0.39915  0.26969  0.02003  1.0000
  H   H10       1.0  0.60085  0.73031  0.97997  1.0000
  H   H11       1.0  0.28179  0.27169  0.90671  1.0000
  H   H12       1.0  0.71821  0.72831  0.09329  1.0000
  H   H13       1.0  0.13367  0.72796  0.18662  1.0000
  H   H14       1.0  0.86633  0.27203  0.81339  1.0000
  H   H15       1.0  0.26651  0.60483  0.09321  1.0000
  H   H16       1.0  0.73349  0.39517  0.90679  1.0000
  H   H17       1.0  0.03829  0.63511  0.08760  1.0000
  H   H18       1.0  0.96171  0.36488  0.91240  1.0000
  H   H19       1.0  0.15143  0.45856  0.68375  1.0000
  H   H20       1.0  0.84857  0.54144  0.31625  1.0000
  H   H21       1.0  0.26066  0.77808  0.96118  1.0000
  H   H22       1.0  0.73934  0.22191  0.03882  1.0000
  H   H23       1.0  0.20429  0.11554  0.11618  1.0000
  H   H24       1.0  0.79572  0.88446  0.88383  1.0000
  C   C1        1.0  0.97793  0.63270  0.73372  1.0000
  C   C2        1.0  0.02207  0.36730  0.26629  1.0000
  C   C3        1.0  0.32208  0.20240  0.97541  1.0000
  C   C4        1.0  0.67793  0.79760  0.02459  1.0000
  C   C5        1.0  0.15480  0.68920  0.10296  1.0000
  C   C6        1.0  0.84520  0.31079  0.89704  1.0000
  C   C7        1.0  0.27811  0.91789  0.57081  1.0000
  C   C8        1.0  0.72189  0.08213  0.42919  1.0000
  C   C9        1.0  0.37215  0.85572  0.47724  1.0000
  C   C10       1.0  0.62785  0.14429  0.52276  1.0000
  C   C11       1.0  0.39643  0.79437  0.57982  1.0000
  C   C12       1.0  0.60358  0.20564  0.42018  1.0000
  C   C13       1.0  0.15928  0.02660  0.62549  1.0000
  C   C14       1.0  0.84072  0.97341  0.37451  1.0000
  C   C15       1.0  0.08247  0.14961  0.57013  1.0000
  C   C16       1.0  0.91753  0.85039  0.42987  1.0000
  C   C17       1.0  0.13026  0.02188  0.73975  1.0000
  C   C18       1.0  0.86974  0.97813  0.26025  1.0000
  C   C19       1.0  0.42129  0.85050  0.36411  1.0000
  C   C20       1.0  0.57871  0.14951  0.63588  1.0000
  C   C21       1.0  0.55147  0.74036  0.32396  1.0000
  C   C22       1.0  0.44853  0.25964  0.67603  1.0000
  C   C23       1.0  0.34603  0.95210  0.29110  1.0000
  C   C24       1.0  0.65397  0.04789  0.70890  1.0000
  C   C25       1.0  0.48126  0.68922  0.64579  1.0000
  C   C26       1.0  0.51875  0.31079  0.35420  1.0000
  C   C27       1.0  0.43137  0.68655  0.75943  1.0000
  C   C28       1.0  0.56862  0.31345  0.24056  1.0000
  C   C29       1.0  0.61586  0.58959  0.59890  1.0000
  C   C30       1.0  0.38414  0.41041  0.40110  1.0000
  N   N1        1.0  0.01891  0.25437  0.52492  1.0000
  N   N2        1.0  0.98108  0.74564  0.47507  1.0000
  N   N3        1.0  0.11019  0.01757  0.83514  1.0000
  N   N4        1.0  0.88980  0.98242  0.16486  1.0000
  N   N5        1.0  0.66200  0.64780  0.29452  1.0000
  N   N6        1.0  0.33800  0.35220  0.70548  1.0000
  N   N7        1.0  0.28332  0.03706  0.23019  1.0000
  N   N8        1.0  0.71667  0.96294  0.76981  1.0000
  N   N9        1.0  0.38247  0.68871  0.85334  1.0000
  N   N10       1.0  0.61753  0.31129  0.14666  1.0000
  N   N11       1.0  0.73013  0.50907  0.55673  1.0000
  N   N12       1.0  0.26987  0.49093  0.44327  1.0000
  O   O1        1.0  0.03999  0.50794  0.66481  1.0000
  O   O2        1.0  0.96001  0.49205  0.33519  1.0000
  O   O3        1.0  0.16730  0.15921  0.04665  1.0000
  O   O4        1.0  0.83270  0.84078  0.95335  1.0000
  O   O5        1.0  0.19134  0.81878  0.02927  1.0000
  O   O6        1.0  0.80867  0.18121  0.97073  1.0000
