data_image0
_chemical_formula_structural       Co2H24C24N8O8
_chemical_formula_sum              "Co2 H24 C24 N8 O8"
_cell_length_a       8.49451
_cell_length_b       8.6712
_cell_length_c       8.67132
_cell_angle_alpha    79.0632
_cell_angle_beta     87.2357
_cell_angle_gamma    87.2395

_space_group_name_H-M_alt    "P 1"
_space_group_IT_number       1

loop_
  _space_group_symop_operation_xyz
  'x, y, z'

loop_
  _atom_site_type_symbol
  _atom_site_label
  _atom_site_symmetry_multiplicity
  _atom_site_fract_x
  _atom_site_fract_y
  _atom_site_fract_z
  _atom_site_occupancy
  Co  Co1       1.0  0.25000  0.16098  0.83902  1.0000
  Co  Co2       1.0  0.74998  0.83902  0.16099  1.0000
  H   H1        1.0  0.14762  0.07917  0.28706  1.0000
  H   H2        1.0  0.64766  0.28706  0.07910  1.0000
  H   H3        1.0  0.85235  0.92104  0.71284  1.0000
  H   H4        1.0  0.35245  0.71288  0.92087  1.0000
  H   H5        1.0  0.90480  0.25442  0.26176  1.0000
  H   H6        1.0  0.40482  0.26169  0.25435  1.0000
  H   H7        1.0  0.09508  0.74565  0.73827  1.0000
  H   H8        1.0  0.59525  0.73820  0.74556  1.0000
  H   H9        1.0  0.82690  0.39962  0.48183  1.0000
  H   H10       1.0  0.32691  0.48171  0.39963  1.0000
  H   H11       1.0  0.17305  0.60045  0.51818  1.0000
  H   H12       1.0  0.67319  0.51805  0.60045  1.0000
  H   H13       1.0  0.99275  0.35709  0.71622  1.0000
  H   H14       1.0  0.49276  0.71611  0.35714  1.0000
  H   H15       1.0  0.00719  0.64294  0.28381  1.0000
  H   H16       1.0  0.50728  0.28370  0.64294  1.0000
  H   H17       1.0  0.38289  0.99595  0.63288  1.0000
  H   H18       1.0  0.88294  0.63289  0.99599  1.0000
  H   H19       1.0  0.61705  0.00409  0.36704  1.0000
  H   H20       1.0  0.11712  0.36707  0.00404  1.0000
  H   H21       1.0  0.35775  0.96915  0.43968  1.0000
  H   H22       1.0  0.85781  0.43969  0.96917  1.0000
  H   H23       1.0  0.64218  0.03095  0.56022  1.0000
  H   H24       1.0  0.14229  0.56025  0.03088  1.0000
  C   C1        1.0  0.04548  0.92780  0.97791  1.0000
  C   C2        1.0  0.54550  0.97784  0.92779  1.0000
  C   C3        1.0  0.95447  0.07228  0.02216  1.0000
  C   C4        1.0  0.45449  0.02211  0.07226  1.0000
  C   C5        1.0  0.19393  0.11866  0.51841  1.0000
  C   C6        1.0  0.69396  0.51840  0.11865  1.0000
  C   C7        1.0  0.80604  0.88148  0.48150  1.0000
  C   C8        1.0  0.30610  0.48154  0.88137  1.0000
  C   C9        1.0  0.10708  0.14197  0.38002  1.0000
  C   C10       1.0  0.60711  0.37999  0.14192  1.0000
  C   C11       1.0  0.89286  0.85819  0.61991  1.0000
  C   C12       1.0  0.39297  0.61992  0.85806  1.0000
  C   C13       1.0  0.97456  0.24070  0.36584  1.0000
  C   C14       1.0  0.47457  0.36580  0.24065  1.0000
  C   C15       1.0  0.02536  0.75940  0.63414  1.0000
  C   C16       1.0  0.52548  0.63410  0.75930  1.0000
  C   C17       1.0  0.92983  0.31967  0.48886  1.0000
  C   C18       1.0  0.42984  0.48878  0.31967  1.0000
  C   C19       1.0  0.07011  0.68041  0.51114  1.0000
  C   C20       1.0  0.57023  0.51106  0.68036  1.0000
  C   C21       1.0  0.02147  0.29649  0.61913  1.0000
  C   C22       1.0  0.52148  0.61905  0.29651  1.0000
  C   C23       1.0  0.97847  0.70358  0.38087  1.0000
  C   C24       1.0  0.47856  0.38080  0.70354  1.0000
  N   N1        1.0  0.15117  0.19767  0.63730  1.0000
  N   N2        1.0  0.65119  0.63727  0.19769  1.0000
  N   N3        1.0  0.84878  0.80239  0.36267  1.0000
  N   N4        1.0  0.34884  0.36264  0.80233  1.0000
  N   N5        1.0  0.31956  0.01656  0.53376  1.0000
  N   N6        1.0  0.81960  0.53375  0.01656  1.0000
  N   N7        1.0  0.68047  0.98365  0.46611  1.0000
  N   N8        1.0  0.18052  0.46616  0.98352  1.0000
  O   O1        1.0  0.16789  0.95138  0.88706  1.0000
  O   O2        1.0  0.66790  0.88702  0.95138  1.0000
  O   O3        1.0  0.83205  0.04869  0.11296  1.0000
  O   O4        1.0  0.33208  0.11294  0.04867  1.0000
  O   O5        1.0  0.99374  0.79376  0.03446  1.0000
  O   O6        1.0  0.49376  0.03440  0.79373  1.0000
  O   O7        1.0  0.00623  0.20633  0.96560  1.0000
  O   O8        1.0  0.50621  0.96555  0.20631  1.0000
