data_image0
_chemical_formula_structural       Cu2H24C24N8O8
_chemical_formula_sum              "Cu2 H24 C24 N8 O8"
_cell_length_a       8.89559
_cell_length_b       8.62421
_cell_length_c       8.62418
_cell_angle_alpha    77.8848
_cell_angle_beta     86.3395
_cell_angle_gamma    86.339

_space_group_name_H-M_alt    "P 1"
_space_group_IT_number       1

loop_
  _space_group_symop_operation_xyz
  'x, y, z'

loop_
  _atom_site_type_symbol
  _atom_site_label
  _atom_site_symmetry_multiplicity
  _atom_site_fract_x
  _atom_site_fract_y
  _atom_site_fract_z
  _atom_site_occupancy
  Cu  Cu1       1.0  0.25000  0.16820  0.83180  1.0000
  Cu  Cu2       1.0  0.75000  0.83181  0.16819  1.0000
  H   H1        1.0  0.98728  0.35233  0.71118  1.0000
  H   H2        1.0  0.51273  0.28882  0.64767  1.0000
  H   H3        1.0  0.01273  0.64767  0.28882  1.0000
  H   H4        1.0  0.48728  0.71118  0.35234  1.0000
  H   H5        1.0  0.82089  0.38290  0.48251  1.0000
  H   H6        1.0  0.67912  0.51749  0.61711  1.0000
  H   H7        1.0  0.17912  0.61711  0.51749  1.0000
  H   H8        1.0  0.32089  0.48252  0.38290  1.0000
  H   H9        1.0  0.14905  0.08425  0.27489  1.0000
  H   H10       1.0  0.35094  0.72510  0.91577  1.0000
  H   H11       1.0  0.85095  0.91575  0.72510  1.0000
  H   H12       1.0  0.64905  0.27490  0.08424  1.0000
  H   H13       1.0  0.90338  0.24067  0.26115  1.0000
  H   H14       1.0  0.59661  0.73885  0.75935  1.0000
  H   H15       1.0  0.09662  0.75934  0.73885  1.0000
  H   H16       1.0  0.40338  0.26115  0.24067  1.0000
  H   H17       1.0  0.38184  0.01557  0.61801  1.0000
  H   H18       1.0  0.11816  0.38198  0.98443  1.0000
  H   H19       1.0  0.61815  0.98443  0.38199  1.0000
  H   H20       1.0  0.88185  0.61801  0.01557  1.0000
  H   H21       1.0  0.36435  0.99023  0.42270  1.0000
  H   H22       1.0  0.13565  0.57729  0.00977  1.0000
  H   H23       1.0  0.63565  0.00975  0.57730  1.0000
  H   H24       1.0  0.86435  0.42270  0.99024  1.0000
  C   C1        1.0  0.04544  0.92657  0.97719  1.0000
  C   C2        1.0  0.45457  0.02280  0.07342  1.0000
  C   C3        1.0  0.95455  0.07344  0.02281  1.0000
  C   C4        1.0  0.54545  0.97718  0.92656  1.0000
  C   C5        1.0  0.19471  0.12868  0.50437  1.0000
  C   C6        1.0  0.30529  0.49562  0.87133  1.0000
  C   C7        1.0  0.80529  0.87132  0.49562  1.0000
  C   C8        1.0  0.69471  0.50438  0.12868  1.0000
  C   C9        1.0  0.01729  0.29428  0.61225  1.0000
  C   C10       1.0  0.48271  0.38775  0.70573  1.0000
  C   C11       1.0  0.98271  0.70573  0.38775  1.0000
  C   C12       1.0  0.51730  0.61225  0.29428  1.0000
  C   C13       1.0  0.92575  0.31057  0.48580  1.0000
  C   C14       1.0  0.57425  0.51420  0.68945  1.0000
  C   C15       1.0  0.07425  0.68945  0.51420  1.0000
  C   C16       1.0  0.42575  0.48581  0.31056  1.0000
  C   C17       1.0  0.10772  0.14464  0.36941  1.0000
  C   C18       1.0  0.39227  0.63058  0.85538  1.0000
  C   C19       1.0  0.89227  0.85537  0.63058  1.0000
  C   C20       1.0  0.60773  0.36942  0.14464  1.0000
  C   C21       1.0  0.97305  0.23343  0.36180  1.0000
  C   C22       1.0  0.52695  0.63820  0.76658  1.0000
  C   C23       1.0  0.02695  0.76658  0.63820  1.0000
  C   C24       1.0  0.47305  0.36180  0.23343  1.0000
  N   N1        1.0  0.14872  0.20533  0.62336  1.0000
  N   N2        1.0  0.35128  0.37663  0.79467  1.0000
  N   N3        1.0  0.85128  0.79467  0.37663  1.0000
  N   N4        1.0  0.64872  0.62337  0.20533  1.0000
  N   N5        1.0  0.32381  0.03690  0.51698  1.0000
  N   N6        1.0  0.17619  0.48301  0.96310  1.0000
  N   N7        1.0  0.67619  0.96309  0.48302  1.0000
  N   N8        1.0  0.82381  0.51698  0.03691  1.0000
  O   O1        1.0  0.16530  0.95119  0.88903  1.0000
  O   O2        1.0  0.33470  0.11095  0.04881  1.0000
  O   O3        1.0  0.83469  0.04882  0.11097  1.0000
  O   O4        1.0  0.66531  0.88903  0.95117  1.0000
  O   O5        1.0  0.99532  0.79090  0.02945  1.0000
  O   O6        1.0  0.50467  0.97052  0.20910  1.0000
  O   O7        1.0  0.00465  0.20912  0.97054  1.0000
  O   O8        1.0  0.49534  0.02945  0.79088  1.0000
