data_image0
_chemical_formula_structural       Co2H24C24N8O8
_chemical_formula_sum              "Co2 H24 C24 N8 O8"
_cell_length_a       5.52015
_cell_length_b       8.61541
_cell_length_c       14.6526
_cell_angle_alpha    83.7502
_cell_angle_beta     79.4389
_cell_angle_gamma    70.3117

_space_group_name_H-M_alt    "P 1"
_space_group_IT_number       1

loop_
  _space_group_symop_operation_xyz
  'x, y, z'

loop_
  _atom_site_type_symbol
  _atom_site_label
  _atom_site_symmetry_multiplicity
  _atom_site_fract_x
  _atom_site_fract_y
  _atom_site_fract_z
  _atom_site_occupancy
  Co  Co1       1.0  0.83709  0.24831  0.74880  1.0000
  Co  Co2       1.0  0.15628  0.75048  0.25070  1.0000
  H   H1        1.0  0.74624  0.92690  0.77583  1.0000
  H   H2        1.0  0.57170  0.41196  0.27005  1.0000
  H   H3        1.0  0.25227  0.08650  0.23029  1.0000
  H   H4        1.0  0.45556  0.58047  0.71927  1.0000
  H   H5        1.0  0.87992  0.67370  0.69028  1.0000
  H   H6        1.0  0.78359  0.15766  0.18477  1.0000
  H   H7        1.0  0.13062  0.33787  0.31670  1.0000
  H   H8        1.0  0.24496  0.83234  0.80548  1.0000
  H   H9        1.0  0.36743  0.88757  0.48681  1.0000
  H   H10       1.0  0.26228  0.37086  0.98350  1.0000
  H   H11       1.0  0.61776  0.13678  0.51636  1.0000
  H   H12       1.0  0.73376  0.60353  0.01495  1.0000
  H   H13       1.0  0.20989  0.13357  0.58058  1.0000
  H   H14       1.0  0.07006  0.61607  0.07812  1.0000
  H   H15       1.0  0.76150  0.89310  0.42094  1.0000
  H   H16       1.0  0.91839  0.35859  0.92151  1.0000
  H   H17       1.0  0.16618  0.51895  0.55792  1.0000
  H   H18       1.0  0.77959  0.00224  0.05465  1.0000
  H   H19       1.0  0.85360  0.49280  0.45054  1.0000
  H   H20       1.0  0.22011  0.97797  0.94370  1.0000
  H   H21       1.0  0.32200  0.61745  0.46510  1.0000
  H   H22       1.0  0.60507  0.09964  0.96312  1.0000
  H   H23       1.0  0.68928  0.39677  0.54169  1.0000
  H   H24       1.0  0.39008  0.87879  0.03570  1.0000
  C   C1        1.0  0.34388  0.30036  0.70216  1.0000
  C   C2        1.0  0.65617  0.79678  0.20257  1.0000
  C   C3        1.0  0.65874  0.70300  0.29867  1.0000
  C   C4        1.0  0.32567  0.20193  0.79560  1.0000
  C   C5        1.0  0.88328  0.91426  0.71134  1.0000
  C   C6        1.0  0.50621  0.39869  0.20648  1.0000
  C   C7        1.0  0.11174  0.10115  0.29408  1.0000
  C   C8        1.0  0.51269  0.58881  0.78526  1.0000
  C   C9        1.0  0.95949  0.77224  0.66331  1.0000
  C   C10       1.0  0.62484  0.25608  0.15879  1.0000
  C   C11       1.0  0.04289  0.24250  0.34231  1.0000
  C   C12       1.0  0.39564  0.73078  0.83358  1.0000
  C   C13       1.0  0.13545  0.75639  0.57874  1.0000
  C   C14       1.0  0.54374  0.23981  0.07515  1.0000
  C   C15       1.0  0.86386  0.26083  0.42622  1.0000
  C   C16       1.0  0.46577  0.74248  0.92007  1.0000
  C   C17       1.0  0.23196  0.88981  0.55120  1.0000
  C   C18       1.0  0.33320  0.37319  0.04778  1.0000
  C   C19       1.0  0.75604  0.13198  0.45252  1.0000
  C   C20       1.0  0.66781  0.60508  0.94911  1.0000
  C   C21       1.0  0.14468  0.02781  0.60327  1.0000
  C   C22       1.0  0.22576  0.51052  0.10042  1.0000
  C   C23       1.0  0.83577  0.99571  0.39931  1.0000
  C   C24       1.0  0.77283  0.46732  0.89670  1.0000
  N   N1        1.0  0.96966  0.04443  0.68271  1.0000
  N   N2        1.0  0.30787  0.52785  0.17916  1.0000
  N   N3        1.0  0.01399  0.97547  0.32085  1.0000
  N   N4        1.0  0.69872  0.45393  0.81531  1.0000
  N   N5        1.0  0.20097  0.62333  0.52724  1.0000
  N   N6        1.0  0.66690  0.10658  0.02362  1.0000
  N   N7        1.0  0.80675  0.39136  0.47891  1.0000
  N   N8        1.0  0.34154  0.87482  0.97223  1.0000
  O   O1        1.0  0.14856  0.34820  0.66061  1.0000
  O   O2        1.0  0.85706  0.83542  0.16702  1.0000
  O   O3        1.0  0.86367  0.66746  0.33515  1.0000
  O   O4        1.0  0.11834  0.16311  0.82282  1.0000
  O   O5        1.0  0.56048  0.32716  0.67225  1.0000
  O   O6        1.0  0.45330  0.82794  0.16534  1.0000
  O   O7        1.0  0.45409  0.66909  0.33498  1.0000
  O   O8        1.0  0.51476  0.16548  0.83979  1.0000
