data_image0
_chemical_formula_structural       Zn2H24C26N12Cl4O2F4
_chemical_formula_sum              "Zn2 H24 C26 N12 Cl4 O2 F4"
_cell_length_a       7.96267
_cell_length_b       10.3454
_cell_length_c       12.16
_cell_angle_alpha    100.183
_cell_angle_beta     105.511
_cell_angle_gamma    107.081

_space_group_name_H-M_alt    "P 1"
_space_group_IT_number       1

loop_
  _space_group_symop_operation_xyz
  'x, y, z'

loop_
  _atom_site_type_symbol
  _atom_site_label
  _atom_site_symmetry_multiplicity
  _atom_site_fract_x
  _atom_site_fract_y
  _atom_site_fract_z
  _atom_site_occupancy
  Zn  Zn1       1.0  0.82152  0.65885  0.06297  1.0000
  Zn  Zn2       1.0  0.17848  0.34115  0.93703  1.0000
  H   H1        1.0  0.28888  0.73691  0.15160  1.0000
  H   H2        1.0  0.71112  0.26309  0.84839  1.0000
  H   H3        1.0  0.96805  0.99679  0.12956  1.0000
  H   H4        1.0  0.03195  0.00321  0.87044  1.0000
  H   H5        1.0  0.24434  0.23852  0.19122  1.0000
  H   H6        1.0  0.75566  0.76149  0.80878  1.0000
  H   H7        1.0  0.44082  0.21858  0.15917  1.0000
  H   H8        1.0  0.55918  0.78142  0.84083  1.0000
  H   H9        1.0  0.95102  0.21958  0.47360  1.0000
  H   H10       1.0  0.04897  0.78042  0.52639  1.0000
  H   H11       1.0  0.38389  0.10063  0.67833  1.0000
  H   H12       1.0  0.61611  0.89938  0.32168  1.0000
  H   H13       1.0  0.56172  0.15431  0.53941  1.0000
  H   H14       1.0  0.43828  0.84569  0.46059  1.0000
  H   H15       1.0  0.45017  0.46021  0.35788  1.0000
  H   H16       1.0  0.54984  0.53979  0.64212  1.0000
  H   H17       1.0  0.64150  0.45591  0.47278  1.0000
  H   H18       1.0  0.35851  0.54409  0.52722  1.0000
  H   H19       1.0  0.93731  0.43684  0.40805  1.0000
  H   H20       1.0  0.06270  0.56317  0.59196  1.0000
  H   H21       1.0  0.51598  0.53032  0.17797  1.0000
  H   H22       1.0  0.48402  0.46967  0.82203  1.0000
  H   H23       1.0  0.58122  0.10927  0.31607  1.0000
  H   H24       1.0  0.41878  0.89073  0.68393  1.0000
  C   C1        1.0  0.25134  0.83033  0.15771  1.0000
  C   C2        1.0  0.74866  0.16967  0.84229  1.0000
  C   C3        1.0  0.08459  0.96016  0.14390  1.0000
  C   C4        1.0  0.91540  0.03984  0.85610  1.0000
  C   C5        1.0  0.35354  0.19388  0.21449  1.0000
  C   C6        1.0  0.64646  0.80612  0.78552  1.0000
  C   C7        1.0  0.47411  0.25414  0.34720  1.0000
  C   C8        1.0  0.52589  0.74586  0.65280  1.0000
  C   C9        1.0  0.36073  0.21877  0.42928  1.0000
  C   C10       1.0  0.63926  0.78124  0.57072  1.0000
  C   C11       1.0  0.19054  0.23823  0.41641  1.0000
  C   C12       1.0  0.80946  0.76178  0.58359  1.0000
  C   C13       1.0  0.08561  0.20651  0.48927  1.0000
  C   C14       1.0  0.91438  0.79348  0.51073  1.0000
  C   C15       1.0  0.15894  0.15520  0.58172  1.0000
  C   C16       1.0  0.84106  0.84480  0.41829  1.0000
  C   C17       1.0  0.32963  0.13706  0.60254  1.0000
  C   C18       1.0  0.67036  0.86293  0.39746  1.0000
  C   C19       1.0  0.42796  0.16838  0.52542  1.0000
  C   C20       1.0  0.57204  0.83163  0.47458  1.0000
  C   C21       1.0  0.56065  0.41593  0.37744  1.0000
  C   C22       1.0  0.43936  0.58407  0.62256  1.0000
  C   C23       1.0  0.86911  0.47706  0.33990  1.0000
  C   C24       1.0  0.13090  0.52294  0.66010  1.0000
  C   C25       1.0  0.65058  0.52304  0.22118  1.0000
  C   C26       1.0  0.34942  0.47695  0.77882  1.0000
  N   N1        1.0  0.07131  0.82567  0.12644  1.0000
  N   N2        1.0  0.92869  0.17433  0.87356  1.0000
  N   N3        1.0  0.37433  0.96115  0.19344  1.0000
  N   N4        1.0  0.62566  0.03885  0.80656  1.0000
  N   N5        1.0  0.26570  0.04201  0.18322  1.0000
  N   N6        1.0  0.73430  0.95799  0.81679  1.0000
  N   N7        1.0  0.68566  0.46602  0.31338  1.0000
  N   N8        1.0  0.31435  0.53398  0.68662  1.0000
  N   N9        1.0  0.94449  0.53785  0.26976  1.0000
  N   N10       1.0  0.05551  0.46215  0.73024  1.0000
  N   N11       1.0  0.80443  0.56560  0.19437  1.0000
  N   N12       1.0  0.19558  0.43440  0.80563  1.0000
  Cl  Cl1       1.0  0.60770  0.76473  0.05387  1.0000
  Cl  Cl2       1.0  0.39230  0.23527  0.94613  1.0000
  Cl  Cl3       1.0  0.80830  0.53525  0.88907  1.0000
  Cl  Cl4       1.0  0.19171  0.46475  0.11093  1.0000
  O   O1        1.0  0.62653  0.20506  0.37040  1.0000
  O   O2        1.0  0.37347  0.79493  0.62961  1.0000
  F   F1        1.0  0.11950  0.29313  0.32770  1.0000
  F   F2        1.0  0.88050  0.70687  0.67230  1.0000
  F   F3        1.0  0.05737  0.12078  0.65306  1.0000
  F   F4        1.0  0.94262  0.87922  0.34694  1.0000
