data_image0
_chemical_formula_structural       Mn2H24C28N4O8
_chemical_formula_sum              "Mn2 H24 C28 N4 O8"
_cell_length_a       4.51795
_cell_length_b       8.72915
_cell_length_c       15.3784
_cell_angle_alpha    104.995
_cell_angle_beta     90.0001
_cell_angle_gamma    89.9998

_space_group_name_H-M_alt    "P 1"
_space_group_IT_number       1

loop_
  _space_group_symop_operation_xyz
  'x, y, z'

loop_
  _atom_site_type_symbol
  _atom_site_label
  _atom_site_symmetry_multiplicity
  _atom_site_fract_x
  _atom_site_fract_y
  _atom_site_fract_z
  _atom_site_occupancy
  Mn  Mn1       1.0  0.00000  0.50000  0.50000  1.0000
  Mn  Mn2       1.0  0.50000  1.00000  1.00000  1.0000
  H   H1        1.0  0.19372  0.77790  0.48521  1.0000
  H   H2        1.0  0.69372  0.72210  0.01479  1.0000
  H   H3        1.0  0.80628  0.22210  0.51478  1.0000
  H   H4        1.0  0.30628  0.27790  0.98522  1.0000
  H   H5        1.0  0.40050  0.73430  0.56442  1.0000
  H   H6        1.0  0.90050  0.76570  0.93557  1.0000
  H   H7        1.0  0.59950  0.26570  0.43557  1.0000
  H   H8        1.0  0.09950  0.23430  0.06443  1.0000
  H   H9        1.0  0.25676  0.81682  0.72535  1.0000
  H   H10       1.0  0.75675  0.68318  0.77465  1.0000
  H   H11       1.0  0.74324  0.18318  0.27465  1.0000
  H   H12       1.0  0.24324  0.31682  0.22535  1.0000
  H   H13       1.0  0.76045  0.93709  0.51299  1.0000
  H   H14       1.0  0.26045  0.56290  0.98701  1.0000
  H   H15       1.0  0.23955  0.06291  0.48701  1.0000
  H   H16       1.0  0.73955  0.43709  0.01299  1.0000
  H   H17       1.0  0.48042  0.14059  0.62805  1.0000
  H   H18       1.0  0.98041  0.35941  0.87194  1.0000
  H   H19       1.0  0.51958  0.85941  0.37194  1.0000
  H   H20       1.0  0.01958  0.64059  0.12806  1.0000
  H   H21       1.0  0.58260  0.17548  0.79102  1.0000
  H   H22       1.0  0.08259  0.32453  0.70898  1.0000
  H   H23       1.0  0.41740  0.82453  0.20898  1.0000
  H   H24       1.0  0.91741  0.67546  0.29102  1.0000
  C   C1        1.0  0.98844  0.01775  0.86528  1.0000
  C   C2        1.0  0.48844  0.48226  0.63472  1.0000
  C   C3        1.0  0.01156  0.98225  0.13472  1.0000
  C   C4        1.0  0.51157  0.51774  0.36529  1.0000
  C   C5        1.0  0.92547  0.99748  0.76733  1.0000
  C   C6        1.0  0.42547  0.50253  0.73267  1.0000
  C   C7        1.0  0.07453  0.00252  0.23267  1.0000
  C   C8        1.0  0.57453  0.49747  0.26733  1.0000
  C   C9        1.0  0.08660  0.88621  0.70285  1.0000
  C   C10       1.0  0.58659  0.61379  0.79715  1.0000
  C   C11       1.0  0.91340  0.11379  0.29715  1.0000
  C   C12       1.0  0.41341  0.38621  0.20285  1.0000
  C   C13       1.0  0.02896  0.86503  0.61127  1.0000
  C   C14       1.0  0.52895  0.63497  0.88873  1.0000
  C   C15       1.0  0.97104  0.13497  0.38873  1.0000
  C   C16       1.0  0.47104  0.36503  0.11127  1.0000
  C   C17       1.0  0.80777  0.95627  0.58457  1.0000
  C   C18       1.0  0.30777  0.54373  0.91543  1.0000
  C   C19       1.0  0.19223  0.04373  0.41543  1.0000
  C   C20       1.0  0.69223  0.45627  0.08457  1.0000
  C   C21       1.0  0.65071  0.06908  0.64906  1.0000
  C   C22       1.0  0.15071  0.43093  0.85093  1.0000
  C   C23       1.0  0.34929  0.93093  0.35094  1.0000
  C   C24       1.0  0.84929  0.56907  0.14907  1.0000
  C   C25       1.0  0.70713  0.08956  0.74041  1.0000
  C   C26       1.0  0.20713  0.41045  0.75958  1.0000
  C   C27       1.0  0.29287  0.91044  0.25958  1.0000
  C   C28       1.0  0.79287  0.58955  0.24042  1.0000
  N   N1        1.0  0.18722  0.75012  0.54575  1.0000
  N   N2        1.0  0.68721  0.74987  0.95425  1.0000
  N   N3        1.0  0.81278  0.24988  0.45425  1.0000
  N   N4        1.0  0.31279  0.25012  0.04575  1.0000
  O   O1        1.0  0.21494  0.94651  0.88564  1.0000
  O   O2        1.0  0.71493  0.55349  0.61436  1.0000
  O   O3        1.0  0.78506  0.05349  0.11436  1.0000
  O   O4        1.0  0.28507  0.44651  0.38564  1.0000
  O   O5        1.0  0.81221  0.10328  0.92324  1.0000
  O   O6        1.0  0.31221  0.39672  0.57676  1.0000
  O   O7        1.0  0.18779  0.89672  0.07676  1.0000
  O   O8        1.0  0.68780  0.60328  0.42324  1.0000
