data_image0
_chemical_formula_structural       Ag2H22C28N8O6
_chemical_formula_sum              "Ag2 H22 C28 N8 O6"
_cell_length_a       8.90075
_cell_length_b       9.351
_cell_length_c       9.81487
_cell_angle_alpha    102.908
_cell_angle_beta     116.229
_cell_angle_gamma    101.839

_space_group_name_H-M_alt    "P 1"
_space_group_IT_number       1

loop_
  _space_group_symop_operation_xyz
  'x, y, z'

loop_
  _atom_site_type_symbol
  _atom_site_label
  _atom_site_symmetry_multiplicity
  _atom_site_fract_x
  _atom_site_fract_y
  _atom_site_fract_z
  _atom_site_occupancy
  Ag  Ag1       1.0  0.73636  0.71834  0.23790  1.0000
  Ag  Ag2       1.0  0.26364  0.28166  0.76210  1.0000
  H   H1        1.0  0.03540  0.78911  0.58293  1.0000
  H   H2        1.0  0.96460  0.21089  0.41707  1.0000
  H   H3        1.0  0.58938  0.41273  0.10256  1.0000
  H   H4        1.0  0.41062  0.58726  0.89744  1.0000
  H   H5        1.0  0.06809  0.12668  0.91117  1.0000
  H   H6        1.0  0.93191  0.87332  0.08883  1.0000
  H   H7        1.0  0.13308  0.12379  0.18864  1.0000
  H   H8        1.0  0.86692  0.87621  0.81136  1.0000
  H   H9        1.0  0.43044  0.28801  0.42937  1.0000
  H   H10       1.0  0.56956  0.71199  0.57063  1.0000
  H   H11       1.0  0.77795  0.37275  0.61803  1.0000
  H   H12       1.0  0.22205  0.62724  0.38197  1.0000
  H   H13       1.0  0.03602  0.43906  0.86499  1.0000
  H   H14       1.0  0.96398  0.56094  0.13501  1.0000
  H   H15       1.0  0.27079  0.53596  0.15483  1.0000
  H   H16       1.0  0.72921  0.46404  0.84518  1.0000
  H   H17       1.0  0.48040  0.81360  0.29273  1.0000
  H   H18       1.0  0.51960  0.18640  0.70727  1.0000
  H   H19       1.0  0.45686  0.98850  0.13324  1.0000
  H   H20       1.0  0.54314  0.01150  0.86676  1.0000
  H   H21       1.0  0.22073  0.89451  0.84440  1.0000
  H   H22       1.0  0.77927  0.10549  0.15560  1.0000
  C   C1        1.0  0.48985  0.35430  0.12696  1.0000
  C   C2        1.0  0.51015  0.64569  0.87304  1.0000
  C   C3        1.0  0.19985  0.18960  0.01983  1.0000
  C   C4        1.0  0.80015  0.81040  0.98017  1.0000
  C   C5        1.0  0.23549  0.19158  0.17335  1.0000
  C   C6        1.0  0.76451  0.80842  0.82665  1.0000
  C   C7        1.0  0.40315  0.28329  0.30852  1.0000
  C   C8        1.0  0.59685  0.71671  0.69148  1.0000
  C   C9        1.0  0.53343  0.37096  0.28692  1.0000
  C   C10       1.0  0.46657  0.62904  0.71308  1.0000
  C   C11       1.0  0.70758  0.47825  0.42493  1.0000
  C   C12       1.0  0.29243  0.52175  0.57507  1.0000
  C   C13       1.0  0.80812  0.46829  0.57821  1.0000
  C   C14       1.0  0.19189  0.53171  0.42179  1.0000
  C   C15       1.0  0.96104  0.60319  0.66601  1.0000
  C   C16       1.0  0.03896  0.39681  0.33399  1.0000
  C   C17       1.0  0.10826  0.65993  0.83391  1.0000
  C   C18       1.0  0.89173  0.34007  0.16609  1.0000
  C   C19       1.0  0.12687  0.55989  0.92349  1.0000
  C   C20       1.0  0.87313  0.44011  0.07651  1.0000
  C   C21       1.0  0.26009  0.61472  0.08690  1.0000
  C   C22       1.0  0.73991  0.38528  0.91310  1.0000
  C   C23       1.0  0.37838  0.76936  0.16394  1.0000
  C   C24       1.0  0.62163  0.23064  0.83606  1.0000
  C   C25       1.0  0.36347  0.86842  0.07442  1.0000
  C   C26       1.0  0.63653  0.13158  0.92558  1.0000
  C   C27       1.0  0.23002  0.81484  0.91133  1.0000
  C   C28       1.0  0.76998  0.18516  0.08867  1.0000
  N   N1        1.0  0.32704  0.26755  0.99697  1.0000
  N   N2        1.0  0.67296  0.73245  0.00303  1.0000
  N   N3        1.0  0.79441  0.61213  0.41936  1.0000
  N   N4        1.0  0.20559  0.38787  0.58064  1.0000
  N   N5        1.0  0.94565  0.68496  0.56486  1.0000
  N   N6        1.0  0.05435  0.31504  0.43513  1.0000
  N   N7        1.0  0.82571  0.04498  0.52854  1.0000
  N   N8        1.0  0.17429  0.95502  0.47146  1.0000
  O   O1        1.0  0.82536  0.03616  0.39501  1.0000
  O   O2        1.0  0.17464  0.96384  0.60499  1.0000
  O   O3        1.0  0.73881  0.92681  0.53684  1.0000
  O   O4        1.0  0.26119  0.07318  0.46316  1.0000
  O   O5        1.0  0.91516  0.17263  0.64867  1.0000
  O   O6        1.0  0.08484  0.82737  0.35133  1.0000
