data_image0
_chemical_formula_structural       Cu4H16C32N8O18
_chemical_formula_sum              "Cu4 H16 C32 N8 O18"
_cell_length_a       8.52922
_cell_length_b       9.15904
_cell_length_c       15.2476
_cell_angle_alpha    107.496
_cell_angle_beta     109.678
_cell_angle_gamma    89.9064

_space_group_name_H-M_alt    "P 1"
_space_group_IT_number       1

loop_
  _space_group_symop_operation_xyz
  'x, y, z'

loop_
  _atom_site_type_symbol
  _atom_site_label
  _atom_site_symmetry_multiplicity
  _atom_site_fract_x
  _atom_site_fract_y
  _atom_site_fract_z
  _atom_site_occupancy
  Cu  Cu1       1.0  0.92728  0.79809  0.57312  1.0000
  Cu  Cu2       1.0  0.57259  0.22469  0.42683  1.0000
  Cu  Cu3       1.0  0.07272  0.20193  0.42689  1.0000
  Cu  Cu4       1.0  0.42741  0.77533  0.57317  1.0000
  H   H1        1.0  0.80429  0.01468  0.88459  1.0000
  H   H2        1.0  0.69673  0.12988  0.11555  1.0000
  H   H3        1.0  0.19574  0.98531  0.11543  1.0000
  H   H4        1.0  0.30327  0.87012  0.88446  1.0000
  H   H5        1.0  0.87831  0.02267  0.74021  1.0000
  H   H6        1.0  0.62245  0.28244  0.25987  1.0000
  H   H7        1.0  0.12170  0.97732  0.25981  1.0000
  H   H8        1.0  0.37755  0.71756  0.74013  1.0000
  H   H9        1.0  0.98091  0.56816  0.68023  1.0000
  H   H10       1.0  0.52069  0.88795  0.31981  1.0000
  H   H11       1.0  0.01909  0.43185  0.31978  1.0000
  H   H12       1.0  0.47929  0.11204  0.68018  1.0000
  H   H13       1.0  0.91183  0.53991  0.82109  1.0000
  H   H14       1.0  0.58985  0.71879  0.17895  1.0000
  H   H15       1.0  0.08818  0.46007  0.17890  1.0000
  H   H16       1.0  0.41014  0.28121  0.82104  1.0000
  C   C1        1.0  0.85048  0.77485  0.86336  1.0000
  C   C2        1.0  0.65053  0.91135  0.13660  1.0000
  C   C3        1.0  0.14952  0.22514  0.13663  1.0000
  C   C4        1.0  0.34947  0.08864  0.86340  1.0000
  C   C5        1.0  0.84466  0.91373  0.84181  1.0000
  C   C6        1.0  0.65622  0.07180  0.15824  1.0000
  C   C7        1.0  0.15539  0.08627  0.15819  1.0000
  C   C8        1.0  0.34375  0.92819  0.84176  1.0000
  C   C9        1.0  0.88544  0.91929  0.76196  1.0000
  C   C10       1.0  0.61550  0.15730  0.23813  1.0000
  C   C11       1.0  0.11460  0.08071  0.23804  1.0000
  C   C12       1.0  0.38449  0.84271  0.76187  1.0000
  C   C13       1.0  0.94291  0.66471  0.72774  1.0000
  C   C14       1.0  0.55843  0.93694  0.27229  1.0000
  C   C15       1.0  0.05708  0.33529  0.27225  1.0000
  C   C16       1.0  0.44157  0.06305  0.72772  1.0000
  C   C17       1.0  0.90458  0.64905  0.80606  1.0000
  C   C18       1.0  0.59664  0.84292  0.19387  1.0000
  C   C19       1.0  0.09540  0.35092  0.19391  1.0000
  C   C20       1.0  0.40336  0.15708  0.80614  1.0000
  C   C21       1.0  0.79663  0.75595  0.94022  1.0000
  C   C22       1.0  0.70434  0.81554  0.05965  1.0000
  C   C23       1.0  0.20338  0.24407  0.05978  1.0000
  C   C24       1.0  0.29567  0.18445  0.94034  1.0000
  C   C25       1.0  0.90324  0.47904  0.48201  1.0000
  C   C26       1.0  0.59676  0.99695  0.51811  1.0000
  C   C27       1.0  0.09677  0.52097  0.51800  1.0000
  C   C28       1.0  0.40323  0.00304  0.48189  1.0000
  C   C29       1.0  0.03863  0.05735  0.55197  1.0000
  C   C30       1.0  0.46129  0.50539  0.44800  1.0000
  C   C31       1.0  0.96138  0.94267  0.44802  1.0000
  C   C32       1.0  0.53869  0.49462  0.55200  1.0000
  N   N1        1.0  0.93074  0.79634  0.70483  1.0000
  N   N2        1.0  0.57045  0.09150  0.29529  1.0000
  N   N3        1.0  0.06927  0.20367  0.29520  1.0000
  N   N4        1.0  0.42955  0.90849  0.70470  1.0000
  N   N5        1.0  0.77991  0.62918  0.96123  1.0000
  N   N6        1.0  0.72068  0.66761  0.03825  1.0000
  N   N7        1.0  0.22008  0.37082  0.03877  1.0000
  N   N8        1.0  0.27931  0.33237  0.96175  1.0000
  O   O1        1.0  0.75074  0.87974  0.00012  1.0000
  O   O2        1.0  0.24928  0.12023  0.99989  1.0000
  O   O3        1.0  0.81624  0.58580  0.50854  1.0000
  O   O4        1.0  0.68370  0.07682  0.49151  1.0000
  O   O5        1.0  0.18374  0.41420  0.49145  1.0000
  O   O6        1.0  0.31630  0.92320  0.50850  1.0000
  O   O7        1.0  0.84403  0.34297  0.42992  1.0000
  O   O8        1.0  0.65607  0.91312  0.57041  1.0000
  O   O9        1.0  0.15597  0.65705  0.57009  1.0000
  O   O10       1.0  0.34395  0.08691  0.42960  1.0000
  O   O11       1.0  0.03897  0.01261  0.62324  1.0000
  O   O12       1.0  0.46092  0.38936  0.37669  1.0000
  O   O13       1.0  0.96102  0.98736  0.37674  1.0000
  O   O14       1.0  0.53907  0.61065  0.62330  1.0000
  O   O15       1.0  0.09864  0.18905  0.56046  1.0000
  O   O16       1.0  0.40144  0.62886  0.43954  1.0000
  O   O17       1.0  0.90137  0.81095  0.43953  1.0000
  O   O18       1.0  0.59854  0.37114  0.56044  1.0000
