data_image0
_chemical_formula_structural       Rb4H8C24N12O32
_chemical_formula_sum              "Rb4 H8 C24 N12 O32"
_cell_length_a       4.5467
_cell_length_b       10.9664
_cell_length_c       19.6443
_cell_angle_alpha    90
_cell_angle_beta     91.2611
_cell_angle_gamma    90

_space_group_name_H-M_alt    "P 1"
_space_group_IT_number       1

loop_
  _space_group_symop_operation_xyz
  'x, y, z'

loop_
  _atom_site_type_symbol
  _atom_site_label
  _atom_site_symmetry_multiplicity
  _atom_site_fract_x
  _atom_site_fract_y
  _atom_site_fract_z
  _atom_site_occupancy
  Rb  Rb1       1.0  0.91485  0.85995  0.13283  1.0000
  Rb  Rb2       1.0  0.58516  0.35995  0.36717  1.0000
  Rb  Rb3       1.0  0.08516  0.14005  0.86717  1.0000
  Rb  Rb4       1.0  0.41484  0.64005  0.63283  1.0000
  H   H1        1.0  0.09749  0.88220  0.48180  1.0000
  H   H2        1.0  0.40252  0.38220  0.01820  1.0000
  H   H3        1.0  0.90252  0.11780  0.51820  1.0000
  H   H4        1.0  0.59748  0.61780  0.98180  1.0000
  H   H5        1.0  0.67507  0.96232  0.30683  1.0000
  H   H6        1.0  0.82494  0.46232  0.19317  1.0000
  H   H7        1.0  0.32493  0.03768  0.69317  1.0000
  H   H8        1.0  0.17507  0.53768  0.80683  1.0000
  C   C1        1.0  0.42796  0.83089  0.32842  1.0000
  C   C2        1.0  0.07204  0.33089  0.17158  1.0000
  C   C3        1.0  0.57204  0.16911  0.67158  1.0000
  C   C4        1.0  0.92796  0.66911  0.82842  1.0000
  C   C5        1.0  0.31692  0.71331  0.31628  1.0000
  C   C6        1.0  0.18308  0.21331  0.18372  1.0000
  C   C7        1.0  0.68307  0.28668  0.68372  1.0000
  C   C8        1.0  0.81692  0.78668  0.81628  1.0000
  C   C9        1.0  0.13047  0.64667  0.36322  1.0000
  C   C10       1.0  0.36953  0.14667  0.13678  1.0000
  C   C11       1.0  0.86953  0.35333  0.63678  1.0000
  C   C12       1.0  0.63047  0.85333  0.86322  1.0000
  C   C13       1.0  0.05414  0.71865  0.42329  1.0000
  C   C14       1.0  0.44586  0.21865  0.07671  1.0000
  C   C15       1.0  0.94586  0.28135  0.57671  1.0000
  C   C16       1.0  0.55413  0.78135  0.92329  1.0000
  C   C17       1.0  0.15691  0.83461  0.43545  1.0000
  C   C18       1.0  0.34309  0.33461  0.06455  1.0000
  C   C19       1.0  0.84309  0.16539  0.56455  1.0000
  C   C20       1.0  0.65691  0.66539  0.93545  1.0000
  C   C21       1.0  0.33777  0.89286  0.38882  1.0000
  C   C22       1.0  0.16223  0.39286  0.11118  1.0000
  C   C23       1.0  0.66223  0.10714  0.61118  1.0000
  C   C24       1.0  0.83777  0.60714  0.88882  1.0000
  N   N1        1.0  0.39299  0.65373  0.25397  1.0000
  N   N2        1.0  0.10701  0.15373  0.24603  1.0000
  N   N3        1.0  0.60701  0.34627  0.74603  1.0000
  N   N4        1.0  0.89299  0.84627  0.75397  1.0000
  N   N5        1.0  0.87697  0.66359  0.47493  1.0000
  N   N6        1.0  0.62303  0.16359  0.02507  1.0000
  N   N7        1.0  0.12303  0.33641  0.52507  1.0000
  N   N8        1.0  0.37697  0.83641  0.97493  1.0000
  N   N9        1.0  0.43126  0.01342  0.40297  1.0000
  N   N10       1.0  0.06874  0.51342  0.09703  1.0000
  N   N11       1.0  0.56874  0.98658  0.59703  1.0000
  N   N12       1.0  0.93126  0.48658  0.90297  1.0000
  O   O1        1.0  0.62057  0.87958  0.28671  1.0000
  O   O2        1.0  0.87942  0.37958  0.21329  1.0000
  O   O3        1.0  0.37942  0.12042  0.71329  1.0000
  O   O4        1.0  0.12058  0.62042  0.78671  1.0000
  O   O5        1.0  0.38855  0.71461  0.20006  1.0000
  O   O6        1.0  0.11145  0.21461  0.29994  1.0000
  O   O7        1.0  0.61145  0.28539  0.79994  1.0000
  O   O8        1.0  0.88855  0.78539  0.70006  1.0000
  O   O9        1.0  0.45187  0.54289  0.25542  1.0000
  O   O10       1.0  0.04813  0.04289  0.24458  1.0000
  O   O11       1.0  0.54813  0.45711  0.74458  1.0000
  O   O12       1.0  0.95187  0.95711  0.75542  1.0000
  O   O13       1.0  0.04997  0.53902  0.35395  1.0000
  O   O14       1.0  0.45003  0.03902  0.14605  1.0000
  O   O15       1.0  0.95004  0.46098  0.64605  1.0000
  O   O16       1.0  0.54997  0.96098  0.85395  1.0000
  O   O17       1.0  0.67583  0.59278  0.45727  1.0000
  O   O18       1.0  0.82417  0.09278  0.04273  1.0000
  O   O19       1.0  0.32417  0.40722  0.54273  1.0000
  O   O20       1.0  0.17583  0.90722  0.95727  1.0000
  O   O21       1.0  0.93150  0.69082  0.53578  1.0000
  O   O22       1.0  0.56850  0.19082  0.96422  1.0000
  O   O23       1.0  0.06850  0.30918  0.46422  1.0000
  O   O24       1.0  0.43150  0.80918  0.03578  1.0000
  O   O25       1.0  0.33076  0.07028  0.45184  1.0000
  O   O26       1.0  0.16924  0.57028  0.04816  1.0000
  O   O27       1.0  0.66925  0.92972  0.54816  1.0000
  O   O28       1.0  0.83075  0.42972  0.95184  1.0000
  O   O29       1.0  0.62255  0.06170  0.36452  1.0000
  O   O30       1.0  0.87746  0.56170  0.13548  1.0000
  O   O31       1.0  0.37746  0.93830  0.63548  1.0000
  O   O32       1.0  0.12254  0.43830  0.86452  1.0000
