data_image0
_chemical_formula_structural       Bi4H4C20O18
_chemical_formula_sum              "Bi4 H4 C20 O18"
_cell_length_a       7.96821
_cell_length_b       8.44177
_cell_length_c       9.90957
_cell_angle_alpha    109.15
_cell_angle_beta     90.7352
_cell_angle_gamma    116.204

_space_group_name_H-M_alt    "P 1"
_space_group_IT_number       1

loop_
  _space_group_symop_operation_xyz
  'x, y, z'

loop_
  _atom_site_type_symbol
  _atom_site_label
  _atom_site_symmetry_multiplicity
  _atom_site_fract_x
  _atom_site_fract_y
  _atom_site_fract_z
  _atom_site_occupancy
  Bi  Bi1       1.0  0.13368  0.14431  0.90486  1.0000
  Bi  Bi2       1.0  0.86632  0.85569  0.09514  1.0000
  Bi  Bi3       1.0  0.74636  0.24869  0.02757  1.0000
  Bi  Bi4       1.0  0.25364  0.75132  0.97243  1.0000
  H   H1        1.0  0.75436  0.71176  0.43371  1.0000
  H   H2        1.0  0.24564  0.28824  0.56629  1.0000
  H   H3        1.0  0.13502  0.70395  0.48378  1.0000
  H   H4        1.0  0.86498  0.29605  0.51622  1.0000
  C   C1        1.0  0.42363  0.82238  0.58897  1.0000
  C   C2        1.0  0.57638  0.17762  0.41103  1.0000
  C   C3        1.0  0.60061  0.82649  0.57497  1.0000
  C   C4        1.0  0.39940  0.17351  0.42503  1.0000
  C   C5        1.0  0.77533  0.96094  0.68962  1.0000
  C   C6        1.0  0.22467  0.03905  0.31038  1.0000
  C   C7        1.0  0.61814  0.71033  0.44477  1.0000
  C   C8        1.0  0.38186  0.28968  0.55523  1.0000
  C   C9        1.0  0.27144  0.70597  0.47190  1.0000
  C   C10       1.0  0.72855  0.29403  0.52810  1.0000
  C   C11       1.0  0.38763  0.93382  0.72612  1.0000
  C   C12       1.0  0.61237  0.06617  0.27388  1.0000
  C   C13       1.0  0.29048  0.59337  0.33949  1.0000
  C   C14       1.0  0.70952  0.40663  0.66051  1.0000
  C   C15       1.0  0.11899  0.48949  0.22084  1.0000
  C   C16       1.0  0.88101  0.51051  0.77916  1.0000
  C   C17       1.0  0.46735  0.59427  0.32579  1.0000
  C   C18       1.0  0.53265  0.40573  0.67421  1.0000
  C   C19       1.0  0.50977  0.47320  0.19586  1.0000
  C   C20       1.0  0.49023  0.52680  0.80414  1.0000
  O   O1        1.0  0.89772  0.90448  0.69976  1.0000
  O   O2        1.0  0.10228  0.09552  0.30024  1.0000
  O   O3        1.0  0.79986  0.12684  0.76705  1.0000
  O   O4        1.0  0.20014  0.87316  0.23295  1.0000
  O   O5        1.0  0.29789  0.02106  0.71819  1.0000
  O   O6        1.0  0.70212  0.97895  0.28181  1.0000
  O   O7        1.0  0.44951  0.93102  0.84779  1.0000
  O   O8        1.0  0.55049  0.06897  0.15221  1.0000
  O   O9        1.0  0.13458  0.47543  0.08901  1.0000
  O   O10       1.0  0.86542  0.52457  0.91099  1.0000
  O   O11       1.0  0.95571  0.42081  0.25627  1.0000
  O   O12       1.0  0.04429  0.57919  0.74374  1.0000
  O   O13       1.0  0.10888  0.91633  0.97265  1.0000
  O   O14       1.0  0.89113  0.08368  0.02735  1.0000
  O   O15       1.0  0.68243  0.53673  0.17765  1.0000
  O   O16       1.0  0.31757  0.46327  0.82235  1.0000
  O   O17       1.0  0.37907  0.30909  0.11625  1.0000
  O   O18       1.0  0.62093  0.69091  0.88375  1.0000
