data_image0
_chemical_formula_structural       Ag2P2H34C44N2O4F6
_chemical_formula_sum              "Ag2 P2 H34 C44 N2 O4 F6"
_cell_length_a       8.30185
_cell_length_b       9.03463
_cell_length_c       15.0205
_cell_angle_alpha    103.134
_cell_angle_beta     92.4441
_cell_angle_gamma    111.971

_space_group_name_H-M_alt    "P 1"
_space_group_IT_number       1

loop_
  _space_group_symop_operation_xyz
  'x, y, z'

loop_
  _atom_site_type_symbol
  _atom_site_label
  _atom_site_symmetry_multiplicity
  _atom_site_fract_x
  _atom_site_fract_y
  _atom_site_fract_z
  _atom_site_occupancy
  Ag  Ag1       1.0  0.06846  0.19298  0.10263  1.0000
  Ag  Ag2       1.0  0.93154  0.80703  0.89737  1.0000
  P   P1        1.0  0.17691  0.21877  0.25344  1.0000
  P   P2        1.0  0.82309  0.78123  0.74656  1.0000
  H   H1        1.0  0.75150  0.29489  0.04275  1.0000
  H   H2        1.0  0.24850  0.70511  0.95724  1.0000
  H   H3        1.0  0.71495  0.51782  0.98230  1.0000
  H   H4        1.0  0.28505  0.48218  0.01770  1.0000
  H   H5        1.0  0.45501  0.37108  0.15440  1.0000
  H   H6        1.0  0.54499  0.62892  0.84560  1.0000
  H   H7        1.0  0.72573  0.62554  0.19794  1.0000
  H   H8        1.0  0.27427  0.37446  0.80205  1.0000
  H   H9        1.0  0.80645  0.80474  0.35905  1.0000
  H   H10       1.0  0.19355  0.19526  0.64095  1.0000
  H   H11       1.0  0.61650  0.72253  0.47835  1.0000
  H   H12       1.0  0.38351  0.27748  0.52165  1.0000
  H   H13       1.0  0.34528  0.46434  0.43573  1.0000
  H   H14       1.0  0.65473  0.53567  0.56427  1.0000
  H   H15       1.0  0.94519  0.39085  0.27220  1.0000
  H   H16       1.0  0.05481  0.60915  0.72780  1.0000
  H   H17       1.0  0.75168  0.43442  0.38749  1.0000
  H   H18       1.0  0.24832  0.56558  0.61251  1.0000
  H   H19       1.0  0.72586  0.30459  0.51968  1.0000
  H   H20       1.0  0.27414  0.69541  0.48032  1.0000
  H   H21       1.0  0.89813  0.13936  0.53725  1.0000
  H   H22       1.0  0.10188  0.86064  0.46276  1.0000
  H   H23       1.0  0.09762  0.09977  0.42272  1.0000
  H   H24       1.0  0.90238  0.90023  0.57729  1.0000
  H   H25       1.0  0.99037  0.87211  0.17559  1.0000
  H   H26       1.0  0.00963  0.12789  0.82441  1.0000
  H   H27       1.0  0.02893  0.62314  0.20056  1.0000
  H   H28       1.0  0.97106  0.37686  0.79944  1.0000
  H   H29       1.0  0.28707  0.65606  0.30542  1.0000
  H   H30       1.0  0.71293  0.34394  0.69458  1.0000
  H   H31       1.0  0.50496  0.93773  0.38711  1.0000
  H   H32       1.0  0.49504  0.06227  0.61289  1.0000
  H   H33       1.0  0.46397  0.18548  0.36440  1.0000
  H   H34       1.0  0.53603  0.81452  0.63560  1.0000
  C   C1        1.0  0.33158  0.14509  0.96130  1.0000
  C   C2        1.0  0.66843  0.85493  0.03871  1.0000
  C   C3        1.0  0.39238  0.05270  0.87700  1.0000
  C   C4        1.0  0.60762  0.94730  0.12300  1.0000
  C   C5        1.0  0.86356  0.38666  0.02412  1.0000
  C   C6        1.0  0.13644  0.61334  0.97588  1.0000
  C   C7        1.0  0.84297  0.51073  0.99020  1.0000
  C   C8        1.0  0.15703  0.48928  0.00980  1.0000
  C   C9        1.0  0.38343  0.39916  0.29294  1.0000
  C   C10       1.0  0.61657  0.60084  0.70706  1.0000
  C   C11       1.0  0.49210  0.44507  0.22624  1.0000
  C   C12       1.0  0.50790  0.55493  0.77376  1.0000
  C   C13       1.0  0.64462  0.58922  0.25070  1.0000
  C   C14       1.0  0.35538  0.41078  0.74930  1.0000
  C   C15       1.0  0.68964  0.68978  0.34116  1.0000
  C   C16       1.0  0.31036  0.31022  0.65884  1.0000
  C   C17       1.0  0.58261  0.64395  0.40782  1.0000
  C   C18       1.0  0.41739  0.35605  0.59218  1.0000
  C   C19       1.0  0.43033  0.49866  0.38408  1.0000
  C   C20       1.0  0.56967  0.50134  0.61592  1.0000
  C   C21       1.0  0.03684  0.24538  0.34099  1.0000
  C   C22       1.0  0.96317  0.75462  0.65902  1.0000
  C   C23       1.0  0.93746  0.33824  0.33130  1.0000
  C   C24       1.0  0.06254  0.66176  0.66870  1.0000
  C   C25       1.0  0.82681  0.36067  0.39554  1.0000
  C   C26       1.0  0.17319  0.63933  0.60446  1.0000
  C   C27       1.0  0.81236  0.28815  0.46927  1.0000
  C   C28       1.0  0.18765  0.71185  0.53073  1.0000
  C   C29       1.0  0.90963  0.19452  0.47910  1.0000
  C   C30       1.0  0.09037  0.80548  0.52090  1.0000
  C   C31       1.0  0.02187  0.17331  0.41534  1.0000
  C   C32       1.0  0.97814  0.82669  0.58466  1.0000
  C   C33       1.0  0.22176  0.04427  0.27066  1.0000
  C   C34       1.0  0.77824  0.95573  0.72934  1.0000
  C   C35       1.0  0.10048  0.88528  0.22361  1.0000
  C   C36       1.0  0.89952  0.11472  0.77639  1.0000
  C   C37       1.0  0.12314  0.74644  0.23734  1.0000
  C   C38       1.0  0.87686  0.25356  0.76266  1.0000
  C   C39       1.0  0.26781  0.76485  0.29651  1.0000
  C   C40       1.0  0.73219  0.23514  0.70349  1.0000
  C   C41       1.0  0.38987  0.92272  0.34245  1.0000
  C   C42       1.0  0.61013  0.07727  0.65755  1.0000
  C   C43       1.0  0.36691  0.06232  0.32980  1.0000
  C   C44       1.0  0.63309  0.93768  0.67020  1.0000
  N   N1        1.0  0.02011  0.37532  0.03402  1.0000
  N   N2        1.0  0.97989  0.62468  0.96598  1.0000
  O   O1        1.0  0.17626  0.06448  0.97486  1.0000
  O   O2        1.0  0.82373  0.93552  0.02515  1.0000
  O   O3        1.0  0.43634  0.28682  0.00332  1.0000
  O   O4        1.0  0.56365  0.71317  0.99668  1.0000
  F   F1        1.0  0.32066  0.06555  0.79658  1.0000
  F   F2        1.0  0.67933  0.93445  0.20342  1.0000
  F   F3        1.0  0.56902  0.11516  0.87970  1.0000
  F   F4        1.0  0.43098  0.88484  0.12029  1.0000
  F   F5        1.0  0.34098  0.88693  0.86992  1.0000
  F   F6        1.0  0.65901  0.11306  0.13007  1.0000
