data_image0
_chemical_formula_structural       Mn2H32C48N4O8
_chemical_formula_sum              "Mn2 H32 C48 N4 O8"
_cell_length_a       6.80294
_cell_length_b       11.4864
_cell_length_c       13.9256
_cell_angle_alpha    114.346
_cell_angle_beta     98.0883
_cell_angle_gamma    89.9734

_space_group_name_H-M_alt    "P 1"
_space_group_IT_number       1

loop_
  _space_group_symop_operation_xyz
  'x, y, z'

loop_
  _atom_site_type_symbol
  _atom_site_label
  _atom_site_symmetry_multiplicity
  _atom_site_fract_x
  _atom_site_fract_y
  _atom_site_fract_z
  _atom_site_occupancy
  Mn  Mn1       1.0  0.25004  0.62197  0.00001  1.0000
  Mn  Mn2       1.0  0.74997  0.37803  0.99999  1.0000
  H   H1        1.0  0.31735  0.70040  0.64863  1.0000
  H   H2        1.0  0.18256  0.05175  0.35140  1.0000
  H   H3        1.0  0.68264  0.29960  0.35137  1.0000
  H   H4        1.0  0.81744  0.94825  0.64860  1.0000
  H   H5        1.0  0.30713  0.57455  0.75992  1.0000
  H   H6        1.0  0.19261  0.81466  0.24015  1.0000
  H   H7        1.0  0.69287  0.42545  0.24008  1.0000
  H   H8        1.0  0.80739  0.18534  0.75985  1.0000
  H   H9        1.0  0.29118  0.93889  0.73618  1.0000
  H   H10       1.0  0.20904  0.20271  0.26385  1.0000
  H   H11       1.0  0.70882  0.06110  0.26382  1.0000
  H   H12       1.0  0.79096  0.79729  0.73615  1.0000
  H   H13       1.0  0.33710  0.00119  0.59677  1.0000
  H   H14       1.0  0.16284  0.40445  0.40350  1.0000
  H   H15       1.0  0.66290  0.99881  0.40323  1.0000
  H   H16       1.0  0.83717  0.59555  0.59651  1.0000
  H   H17       1.0  0.26884  0.13780  0.90629  1.0000
  H   H18       1.0  0.23148  0.23150  0.09376  1.0000
  H   H19       1.0  0.73115  0.86220  0.09371  1.0000
  H   H20       1.0  0.76852  0.76850  0.90624  1.0000
  H   H21       1.0  0.80611  0.19391  0.55899  1.0000
  H   H22       1.0  0.69362  0.63433  0.44041  1.0000
  H   H23       1.0  0.19389  0.80609  0.44101  1.0000
  H   H24       1.0  0.30638  0.36567  0.55959  1.0000
  H   H25       1.0  0.06364  0.31084  0.70055  1.0000
  H   H26       1.0  0.43623  0.60976  0.29918  1.0000
  H   H27       1.0  0.93635  0.68916  0.29945  1.0000
  H   H28       1.0  0.56377  0.39024  0.70082  1.0000
  H   H29       1.0  0.39613  0.15798  0.75851  1.0000
  H   H30       1.0  0.10331  0.39955  0.24143  1.0000
  H   H31       1.0  0.60387  0.84201  0.24149  1.0000
  H   H32       1.0  0.89669  0.60046  0.75858  1.0000
  C   C1        1.0  0.26136  0.85979  0.94450  1.0000
  C   C2        1.0  0.23835  0.91528  0.05551  1.0000
  C   C3        1.0  0.73865  0.14021  0.05550  1.0000
  C   C4        1.0  0.76166  0.08472  0.94448  1.0000
  C   C5        1.0  0.26973  0.94038  0.89026  1.0000
  C   C6        1.0  0.23024  0.05010  0.10975  1.0000
  C   C7        1.0  0.73027  0.05962  0.10974  1.0000
  C   C8        1.0  0.76976  0.94990  0.89025  1.0000
  C   C9        1.0  0.35131  0.35457  0.86337  1.0000
  C   C10       1.0  0.14845  0.49117  0.13652  1.0000
  C   C11       1.0  0.64868  0.64543  0.13663  1.0000
  C   C12       1.0  0.85155  0.50883  0.86348  1.0000
  C   C13       1.0  0.30089  0.74933  0.73250  1.0000
  C   C14       1.0  0.19904  0.01683  0.26751  1.0000
  C   C15       1.0  0.69910  0.25067  0.26750  1.0000
  C   C16       1.0  0.80096  0.98317  0.73249  1.0000
  C   C17       1.0  0.29551  0.67802  0.79371  1.0000
  C   C18       1.0  0.20430  0.88430  0.20632  1.0000
  C   C19       1.0  0.70449  0.32198  0.20629  1.0000
  C   C20       1.0  0.79570  0.11570  0.79368  1.0000
  C   C21       1.0  0.28776  0.88050  0.78098  1.0000
  C   C22       1.0  0.21232  0.09954  0.21904  1.0000
  C   C23       1.0  0.71223  0.11950  0.21902  1.0000
  C   C24       1.0  0.78768  0.90046  0.78096  1.0000
  C   C25       1.0  0.15172  0.22714  0.68627  1.0000
  C   C26       1.0  0.34805  0.54050  0.31354  1.0000
  C   C27       1.0  0.84828  0.77286  0.31374  1.0000
  C   C28       1.0  0.65196  0.45951  0.68647  1.0000
  C   C29       1.0  0.30600  0.23821  0.76323  1.0000
  C   C30       1.0  0.19359  0.47491  0.23667  1.0000
  C   C31       1.0  0.69399  0.76179  0.23677  1.0000
  C   C32       1.0  0.80641  0.52509  0.76333  1.0000
  C   C33       1.0  0.18832  0.00098  0.55531  1.0000
  C   C34       1.0  0.31162  0.44568  0.44486  1.0000
  C   C35       1.0  0.81168  0.99902  0.44469  1.0000
  C   C36       1.0  0.68838  0.55432  0.55514  1.0000
  C   C37       1.0  0.08143  0.11284  0.59099  1.0000
  C   C38       1.0  0.41840  0.52151  0.40886  1.0000
  C   C39       1.0  0.91857  0.88716  0.40902  1.0000
  C   C40       1.0  0.58160  0.47849  0.59114  1.0000
  C   C41       1.0  0.25944  0.07550  0.94717  1.0000
  C   C42       1.0  0.24080  0.12833  0.05285  1.0000
  C   C43       1.0  0.74056  0.92450  0.05283  1.0000
  C   C44       1.0  0.75920  0.87167  0.94715  1.0000
  C   C45       1.0  0.89168  0.10880  0.53245  1.0000
  C   C46       1.0  0.60820  0.57598  0.46721  1.0000
  C   C47       1.0  0.10832  0.89121  0.46755  1.0000
  C   C48       1.0  0.39180  0.42402  0.53280  1.0000
  N   N1        1.0  0.27504  0.73148  0.89624  1.0000
  N   N2        1.0  0.22462  0.83522  0.10376  1.0000
  N   N3        1.0  0.72496  0.26852  0.10376  1.0000
  N   N4        1.0  0.77538  0.16478  0.89624  1.0000
  O   O1        1.0  0.28436  0.45952  0.86543  1.0000
  O   O2        1.0  0.21548  0.59402  0.13449  1.0000
  O   O3        1.0  0.71564  0.54048  0.13457  1.0000
  O   O4        1.0  0.78452  0.40598  0.86551  1.0000
  O   O5        1.0  0.44994  0.34219  0.94376  1.0000
  O   O6        1.0  0.05008  0.39843  0.05610  1.0000
  O   O7        1.0  0.55006  0.65781  0.05625  1.0000
  O   O8        1.0  0.94993  0.60157  0.94391  1.0000
