data_image0
_chemical_formula_structural       Co2H28C40N12O8
_chemical_formula_sum              "Co2 H28 C40 N12 O8"
_cell_length_a       8.3715
_cell_length_b       10.0988
_cell_length_c       13.8704
_cell_angle_alpha    80.9511
_cell_angle_beta     78.5591
_cell_angle_gamma    78.532

_space_group_name_H-M_alt    "P 1"
_space_group_IT_number       1

loop_
  _space_group_symop_operation_xyz
  'x, y, z'

loop_
  _atom_site_type_symbol
  _atom_site_label
  _atom_site_symmetry_multiplicity
  _atom_site_fract_x
  _atom_site_fract_y
  _atom_site_fract_z
  _atom_site_occupancy
  Co  Co1       1.0  0.62694  0.62717  0.54961  1.0000
  Co  Co2       1.0  0.37306  0.37282  0.45039  1.0000
  H   H1        1.0  0.26304  0.45238  0.08966  1.0000
  H   H2        1.0  0.73696  0.54763  0.91033  1.0000
  H   H3        1.0  0.33993  0.59574  0.05073  1.0000
  H   H4        1.0  0.66007  0.40427  0.94926  1.0000
  H   H5        1.0  0.37216  0.44302  0.90682  1.0000
  H   H6        1.0  0.62786  0.55699  0.09318  1.0000
  H   H7        1.0  0.58839  0.45001  0.75380  1.0000
  H   H8        1.0  0.41161  0.55000  0.24619  1.0000
  H   H9        1.0  0.36341  0.82965  0.64268  1.0000
  H   H10       1.0  0.63659  0.17035  0.35731  1.0000
  H   H11       1.0  0.13937  0.84244  0.79326  1.0000
  H   H12       1.0  0.86063  0.15756  0.20673  1.0000
  H   H13       1.0  0.70210  0.82041  0.18513  1.0000
  H   H14       1.0  0.29790  0.17959  0.81487  1.0000
  H   H15       1.0  0.59034  0.80543  0.36666  1.0000
  H   H16       1.0  0.40965  0.19457  0.63334  1.0000
  H   H17       1.0  0.92677  0.45332  0.42414  1.0000
  H   H18       1.0  0.07322  0.54666  0.57586  1.0000
  H   H19       1.0  0.05398  0.45419  0.24937  1.0000
  H   H20       1.0  0.94602  0.54581  0.75063  1.0000
  H   H21       1.0  0.62018  0.08666  0.52867  1.0000
  H   H22       1.0  0.37981  0.91334  0.47133  1.0000
  H   H23       1.0  0.95441  0.26657  0.64610  1.0000
  H   H24       1.0  0.04558  0.73342  0.35391  1.0000
  H   H25       1.0  0.11311  0.03650  0.68978  1.0000
  H   H26       1.0  0.88689  0.96350  0.31023  1.0000
  H   H27       1.0  0.01609  0.82912  0.65719  1.0000
  H   H28       1.0  0.98391  0.17087  0.34281  1.0000
  C   C1        1.0  0.23845  0.64481  0.86325  1.0000
  C   C2        1.0  0.76156  0.35521  0.13676  1.0000
  C   C3        1.0  0.36921  0.53395  0.85270  1.0000
  C   C4        1.0  0.63080  0.46606  0.14730  1.0000
  C   C5        1.0  0.48751  0.53543  0.76653  1.0000
  C   C6        1.0  0.51249  0.46458  0.23348  1.0000
  C   C7        1.0  0.36093  0.74749  0.70392  1.0000
  C   C8        1.0  0.63908  0.25251  0.29608  1.0000
  C   C9        1.0  0.23798  0.75436  0.78715  1.0000
  C   C10       1.0  0.76203  0.24564  0.21284  1.0000
  C   C11       1.0  0.09830  0.65114  0.94498  1.0000
  C   C12       1.0  0.90171  0.34887  0.05503  1.0000
  C   C13       1.0  0.94518  0.64966  0.09374  1.0000
  C   C14       1.0  0.05483  0.35035  0.90626  1.0000
  C   C15       1.0  0.88764  0.63842  0.20060  1.0000
  C   C16       1.0  0.11237  0.36158  0.79940  1.0000
  C   C17       1.0  0.75443  0.73744  0.23621  1.0000
  C   C18       1.0  0.24558  0.26256  0.76379  1.0000
  C   C19       1.0  0.69088  0.72872  0.33660  1.0000
  C   C20       1.0  0.30911  0.27127  0.66340  1.0000
  C   C21       1.0  0.87841  0.53313  0.36956  1.0000
  C   C22       1.0  0.12159  0.46686  0.63044  1.0000
  C   C23       1.0  0.95109  0.53472  0.26994  1.0000
  C   C24       1.0  0.04892  0.46529  0.73005  1.0000
  C   C25       1.0  0.75185  0.82496  0.57436  1.0000
  C   C26       1.0  0.24813  0.17503  0.42564  1.0000
  C   C27       1.0  0.81146  0.94655  0.59291  1.0000
  C   C28       1.0  0.18853  0.05344  0.40709  1.0000
  C   C29       1.0  0.72673  0.07680  0.56514  1.0000
  C   C30       1.0  0.27326  0.92320  0.43486  1.0000
  C   C31       1.0  0.77833  0.19195  0.58463  1.0000
  C   C32       1.0  0.22167  0.80804  0.41537  1.0000
  C   C33       1.0  0.68968  0.33144  0.55455  1.0000
  C   C34       1.0  0.31031  0.66856  0.44545  1.0000
  C   C35       1.0  0.91604  0.17598  0.63151  1.0000
  C   C36       1.0  0.08395  0.82401  0.36849  1.0000
  C   C37       1.0  0.00293  0.04645  0.65663  1.0000
  C   C38       1.0  0.99707  0.95354  0.34337  1.0000
  C   C39       1.0  0.95076  0.93155  0.63787  1.0000
  C   C40       1.0  0.04923  0.06844  0.36213  1.0000
  N   N1        1.0  0.48339  0.63895  0.69250  1.0000
  N   N2        1.0  0.51663  0.36105  0.30749  1.0000
  N   N3        1.0  0.94352  0.70698  0.93465  1.0000
  N   N4        1.0  0.05648  0.29303  0.06535  1.0000
  N   N5        1.0  0.84781  0.70453  0.02715  1.0000
  N   N6        1.0  0.15220  0.29548  0.97285  1.0000
  N   N7        1.0  0.10349  0.61130  0.04436  1.0000
  N   N8        1.0  0.89652  0.38871  0.95564  1.0000
  N   N9        1.0  0.24028  0.55581  0.09041  1.0000
  N   N10       1.0  0.75971  0.44420  0.90958  1.0000
  N   N11       1.0  0.74991  0.62743  0.40312  1.0000
  N   N12       1.0  0.25009  0.37256  0.59688  1.0000
  O   O1        1.0  0.82205  0.70463  0.60208  1.0000
  O   O2        1.0  0.17793  0.29537  0.39792  1.0000
  O   O3        1.0  0.62561  0.84247  0.53153  1.0000
  O   O4        1.0  0.37437  0.15753  0.46848  1.0000
  O   O5        1.0  0.58935  0.34529  0.49443  1.0000
  O   O6        1.0  0.41066  0.65470  0.50557  1.0000
  O   O7        1.0  0.72236  0.43098  0.58964  1.0000
  O   O8        1.0  0.27762  0.56902  0.41037  1.0000
