data_image0
_chemical_formula_structural       VH8C10N2F3
_chemical_formula_sum              "V1 H8 C10 N2 F3"
_cell_length_a       3.89017
_cell_length_b       8.04094
_cell_length_c       8.04093
_cell_angle_alpha    83.8876
_cell_angle_beta     76.048
_cell_angle_gamma    76.0482

_space_group_name_H-M_alt    "P 1"
_space_group_IT_number       1

loop_
  _space_group_symop_operation_xyz
  'x, y, z'

loop_
  _atom_site_type_symbol
  _atom_site_label
  _atom_site_symmetry_multiplicity
  _atom_site_fract_x
  _atom_site_fract_y
  _atom_site_fract_z
  _atom_site_occupancy
  V   V1        1.0  1.00000  0.50029  0.49971  1.0000
  H   H1        1.0  0.21218  0.27124  0.89628  1.0000
  H   H2        1.0  0.61926  0.89616  0.27171  1.0000
  H   H3        1.0  0.38074  0.72828  0.10384  1.0000
  H   H4        1.0  0.78782  0.10372  0.72876  1.0000
  H   H5        1.0  0.39269  0.12649  0.48359  1.0000
  H   H6        1.0  0.99828  0.48329  0.12639  1.0000
  H   H7        1.0  0.00172  0.87361  0.51671  1.0000
  H   H8        1.0  0.60731  0.51641  0.87351  1.0000
  C   C1        1.0  0.56492  0.93484  0.93505  1.0000
  C   C2        1.0  0.43507  0.06495  0.06516  1.0000
  C   C3        1.0  0.51954  0.76609  0.97560  1.0000
  C   C4        1.0  0.73856  0.97556  0.76638  1.0000
  C   C5        1.0  0.26144  0.23363  0.02444  1.0000
  C   C6        1.0  0.48047  0.02440  0.23391  1.0000
  C   C7        1.0  0.64174  0.64795  0.84861  1.0000
  C   C8        1.0  0.86109  0.84865  0.64822  1.0000
  C   C9        1.0  0.13890  0.35178  0.15135  1.0000
  C   C10       1.0  0.35826  0.15139  0.35205  1.0000
  N   N1        1.0  0.81287  0.68687  0.68695  1.0000
  N   N2        1.0  0.18713  0.31305  0.31313  1.0000
  F   F1        1.0  1.00000  0.32598  0.67402  1.0000
  F   F2        1.0  1.00000  0.67470  0.32530  1.0000
  F   F3        1.0  0.50000  0.50066  0.49934  1.0000
