data_image0
_chemical_formula_structural       Co2P4H32C28N4O12F2
_chemical_formula_sum              "Co2 P4 H32 C28 N4 O12 F2"
_cell_length_a       8.2811
_cell_length_b       8.49039
_cell_length_c       13.2979
_cell_angle_alpha    95.0671
_cell_angle_beta     105.065
_cell_angle_gamma    107.306

_space_group_name_H-M_alt    "P 1"
_space_group_IT_number       1

loop_
  _space_group_symop_operation_xyz
  'x, y, z'

loop_
  _atom_site_type_symbol
  _atom_site_label
  _atom_site_symmetry_multiplicity
  _atom_site_fract_x
  _atom_site_fract_y
  _atom_site_fract_z
  _atom_site_occupancy
  Co  Co1       1.0  0.74809  0.71768  0.94267  1.0000
  Co  Co2       1.0  0.25191  0.28232  0.05733  1.0000
  P   P1        1.0  0.13648  0.86091  0.08107  1.0000
  P   P2        1.0  0.86352  0.13909  0.91893  1.0000
  P   P3        1.0  0.68783  0.44133  0.08348  1.0000
  P   P4        1.0  0.31217  0.55867  0.91652  1.0000
  H   H1        1.0  0.06258  0.18395  0.28773  1.0000
  H   H2        1.0  0.93741  0.81605  0.71227  1.0000
  H   H3        1.0  0.10856  0.29259  0.47790  1.0000
  H   H4        1.0  0.89144  0.70742  0.52210  1.0000
  H   H5        1.0  0.59684  0.94654  0.45753  1.0000
  H   H6        1.0  0.40317  0.05346  0.54247  1.0000
  H   H7        1.0  0.54777  0.84335  0.26682  1.0000
  H   H8        1.0  0.45223  0.15665  0.73318  1.0000
  H   H9        1.0  0.63907  0.91871  0.10213  1.0000
  H   H10       1.0  0.36092  0.08129  0.89787  1.0000
  H   H11       1.0  0.86315  0.03825  0.11903  1.0000
  H   H12       1.0  0.13685  0.96175  0.88097  1.0000
  H   H13       1.0  0.56742  0.64370  0.13430  1.0000
  H   H14       1.0  0.43258  0.35630  0.86570  1.0000
  H   H15       1.0  0.74695  0.64082  0.24216  1.0000
  H   H16       1.0  0.25305  0.35918  0.75784  1.0000
  H   H17       1.0  0.01571  0.68423  0.18986  1.0000
  H   H18       1.0  0.98429  0.31577  0.81014  1.0000
  H   H19       1.0  0.06645  0.89569  0.24648  1.0000
  H   H20       1.0  0.93355  0.10431  0.75352  1.0000
  H   H21       1.0  0.52266  0.79636  0.76120  1.0000
  H   H22       1.0  0.47734  0.20363  0.23880  1.0000
  H   H23       1.0  0.39981  0.71144  0.56759  1.0000
  H   H24       1.0  0.60020  0.28855  0.43241  1.0000
  H   H25       1.0  0.69598  0.36435  0.59006  1.0000
  H   H26       1.0  0.30402  0.63565  0.40995  1.0000
  H   H27       1.0  0.80410  0.46499  0.78170  1.0000
  H   H28       1.0  0.19590  0.53501  0.21830  1.0000
  H   H29       1.0  0.29068  0.68560  0.08761  1.0000
  H   H30       1.0  0.70932  0.31440  0.91239  1.0000
  H   H31       1.0  0.90457  0.33534  0.10091  1.0000
  H   H32       1.0  0.09543  0.66467  0.89909  1.0000
  C   C1        1.0  0.80449  0.00229  0.26460  1.0000
  C   C2        1.0  0.19551  0.99771  0.73540  1.0000
  C   C3        1.0  0.96114  0.12982  0.32496  1.0000
  C   C4        1.0  0.03886  0.87018  0.67504  1.0000
  C   C5        1.0  0.98784  0.19262  0.43084  1.0000
  C   C6        1.0  0.01215  0.80738  0.56916  1.0000
  C   C7        1.0  0.85460  0.12422  0.47538  1.0000
  C   C8        1.0  0.14540  0.87578  0.52462  1.0000
  C   C9        1.0  0.69785  0.99688  0.41923  1.0000
  C   C10       1.0  0.30215  0.00312  0.58077  1.0000
  C   C11       1.0  0.67341  0.93736  0.31319  1.0000
  C   C12       1.0  0.32659  0.06264  0.68682  1.0000
  C   C13       1.0  0.77687  0.94178  0.14911  1.0000
  C   C14       1.0  0.22313  0.05822  0.85089  1.0000
  C   C15       1.0  0.70317  0.64024  0.15627  1.0000
  C   C16       1.0  0.29683  0.35976  0.84373  1.0000
  C   C17       1.0  0.00616  0.80522  0.17157  1.0000
  C   C18       1.0  0.99384  0.19478  0.82843  1.0000
  C   C19       1.0  0.55697  0.70101  0.71936  1.0000
  C   C20       1.0  0.44303  0.29899  0.28064  1.0000
  C   C21       1.0  0.48900  0.65152  0.61034  1.0000
  C   C22       1.0  0.51100  0.34847  0.38966  1.0000
  C   C23       1.0  0.53470  0.52748  0.55796  1.0000
  C   C24       1.0  0.46530  0.47252  0.44204  1.0000
  C   C25       1.0  0.65073  0.45961  0.62256  1.0000
  C   C26       1.0  0.34926  0.54039  0.37743  1.0000
  C   C27       1.0  0.71308  0.51568  0.73128  1.0000
  C   C28       1.0  0.28692  0.48432  0.26872  1.0000
  N   N1        1.0  0.81671  0.78463  0.12442  1.0000
  N   N2        1.0  0.18329  0.21537  0.87558  1.0000
  N   N3        1.0  0.66822  0.63452  0.78038  1.0000
  N   N4        1.0  0.33178  0.36548  0.21962  1.0000
  O   O1        1.0  0.01965  0.75183  0.97224  1.0000
  O   O2        1.0  0.98035  0.24818  0.02775  1.0000
  O   O3        1.0  0.20268  0.04730  0.08650  1.0000
  O   O4        1.0  0.79732  0.95270  0.91350  1.0000
  O   O5        1.0  0.30213  0.80177  0.12431  1.0000
  O   O6        1.0  0.69788  0.19823  0.87570  1.0000
  O   O7        1.0  0.71110  0.47626  0.97460  1.0000
  O   O8        1.0  0.28890  0.52374  0.02540  1.0000
  O   O9        1.0  0.85312  0.39651  0.14828  1.0000
  O   O10       1.0  0.14688  0.60350  0.85172  1.0000
  O   O11       1.0  0.51548  0.30697  0.07534  1.0000
  O   O12       1.0  0.48452  0.69303  0.92466  1.0000
  F   F1        1.0  0.87704  0.18702  0.57897  1.0000
  F   F2        1.0  0.12296  0.81297  0.42103  1.0000
