data_image0
_chemical_formula_structural       Cu2H28C32N8Cl4
_chemical_formula_sum              "Cu2 H28 C32 N8 Cl4"
_cell_length_a       7.56701
_cell_length_b       7.93275
_cell_length_c       13.828
_cell_angle_alpha    89.9999
_cell_angle_beta     90.0002
_cell_angle_gamma    111.653

_space_group_name_H-M_alt    "P 1"
_space_group_IT_number       1

loop_
  _space_group_symop_operation_xyz
  'x, y, z'

loop_
  _atom_site_type_symbol
  _atom_site_label
  _atom_site_symmetry_multiplicity
  _atom_site_fract_x
  _atom_site_fract_y
  _atom_site_fract_z
  _atom_site_occupancy
  Cu  Cu1       1.0  0.52007  0.69397  0.75000  1.0000
  Cu  Cu2       1.0  0.47993  0.30603  0.25000  1.0000
  H   H1        1.0  0.48343  0.29437  0.68697  1.0000
  H   H2        1.0  0.48343  0.29437  0.81303  1.0000
  H   H3        1.0  0.51657  0.70563  0.31303  1.0000
  H   H4        1.0  0.51657  0.70563  0.18697  1.0000
  H   H5        1.0  0.02588  0.96294  0.75000  1.0000
  H   H6        1.0  0.97412  0.03706  0.25000  1.0000
  H   H7        1.0  0.73329  0.03118  0.75000  1.0000
  H   H8        1.0  0.26671  0.96881  0.25000  1.0000
  H   H9        1.0  0.76398  0.36363  0.75000  1.0000
  H   H10       1.0  0.23602  0.63637  0.25000  1.0000
  H   H11       1.0  0.08084  0.59922  0.75000  1.0000
  H   H12       1.0  0.91915  0.40078  0.25000  1.0000
  H   H13       1.0  0.27531  0.14986  0.58555  1.0000
  H   H14       1.0  0.27531  0.14987  0.91445  1.0000
  H   H15       1.0  0.72469  0.85014  0.41445  1.0000
  H   H16       1.0  0.72469  0.85014  0.08555  1.0000
  H   H17       1.0  0.17886  0.97484  0.43752  1.0000
  H   H18       1.0  0.17887  0.97483  0.06248  1.0000
  H   H19       1.0  0.82114  0.02517  0.56248  1.0000
  H   H20       1.0  0.82114  0.02517  0.93752  1.0000
  H   H21       1.0  0.19915  0.65939  0.42839  1.0000
  H   H22       1.0  0.19915  0.65938  0.07161  1.0000
  H   H23       1.0  0.80085  0.34062  0.57161  1.0000
  H   H24       1.0  0.80085  0.34062  0.92839  1.0000
  H   H25       1.0  0.34929  0.56299  0.56588  1.0000
  H   H26       1.0  0.34929  0.56299  0.93412  1.0000
  H   H27       1.0  0.65070  0.43701  0.43412  1.0000
  H   H28       1.0  0.65070  0.43701  0.06588  1.0000
  C   C1        1.0  0.40055  0.22343  0.75000  1.0000
  C   C2        1.0  0.59945  0.77657  0.25000  1.0000
  C   C3        1.0  0.21168  0.24796  0.75000  1.0000
  C   C4        1.0  0.78832  0.75203  0.25000  1.0000
  C   C5        1.0  0.03635  0.10358  0.75000  1.0000
  C   C6        1.0  0.96364  0.89642  0.25000  1.0000
  C   C7        1.0  0.87128  0.14216  0.75000  1.0000
  C   C8        1.0  0.12871  0.85783  0.25000  1.0000
  C   C9        1.0  0.88581  0.32228  0.75000  1.0000
  C   C10       1.0  0.11419  0.67771  0.25000  1.0000
  C   C11       1.0  0.06617  0.45730  0.75000  1.0000
  C   C12       1.0  0.93383  0.54270  0.25000  1.0000
  C   C13       1.0  0.35387  0.94536  0.66030  1.0000
  C   C14       1.0  0.35388  0.94536  0.83970  1.0000
  C   C15       1.0  0.64613  0.05465  0.33970  1.0000
  C   C16       1.0  0.64613  0.05465  0.16030  1.0000
  C   C17       1.0  0.28811  0.01830  0.58132  1.0000
  C   C18       1.0  0.28811  0.01830  0.91868  1.0000
  C   C19       1.0  0.71190  0.98170  0.41868  1.0000
  C   C20       1.0  0.71190  0.98170  0.08132  1.0000
  C   C21       1.0  0.23189  0.91739  0.49739  1.0000
  C   C22       1.0  0.23189  0.91739  0.00261  1.0000
  C   C23       1.0  0.76811  0.08261  0.50261  1.0000
  C   C24       1.0  0.76811  0.08261  0.99739  1.0000
  C   C25       1.0  0.24434  0.74631  0.49163  1.0000
  C   C26       1.0  0.24434  0.74631  0.00837  1.0000
  C   C27       1.0  0.75567  0.25369  0.50837  1.0000
  C   C28       1.0  0.75567  0.25370  0.99163  1.0000
  C   C29       1.0  0.32403  0.68924  0.56883  1.0000
  C   C30       1.0  0.32403  0.68924  0.93117  1.0000
  C   C31       1.0  0.67596  0.31076  0.43116  1.0000
  C   C32       1.0  0.67597  0.31076  0.06884  1.0000
  N   N1        1.0  0.22660  0.42235  0.75000  1.0000
  N   N2        1.0  0.77340  0.57764  0.25000  1.0000
  N   N3        1.0  0.39063  0.03597  0.75000  1.0000
  N   N4        1.0  0.60937  0.96403  0.25000  1.0000
  N   N5        1.0  0.38034  0.78723  0.65078  1.0000
  N   N6        1.0  0.38034  0.78723  0.84922  1.0000
  N   N7        1.0  0.61966  0.21277  0.34922  1.0000
  N   N8        1.0  0.61966  0.21277  0.15078  1.0000
  Cl  Cl1       1.0  0.71040  0.64848  0.63245  1.0000
  Cl  Cl2       1.0  0.71040  0.64848  0.86755  1.0000
  Cl  Cl3       1.0  0.28960  0.35152  0.36755  1.0000
  Cl  Cl4       1.0  0.28960  0.35152  0.13245  1.0000
