data_image0
_chemical_formula_structural       CuH8C12N2O4
_chemical_formula_sum              "Cu1 H8 C12 N2 O4"
_cell_length_a       5.60868
_cell_length_b       8.1834
_cell_length_c       8.18339
_cell_angle_alpha    85.4347
_cell_angle_beta     72.0044
_cell_angle_gamma    72.0044

_space_group_name_H-M_alt    "P 1"
_space_group_IT_number       1

loop_
  _space_group_symop_operation_xyz
  'x, y, z'

loop_
  _atom_site_type_symbol
  _atom_site_label
  _atom_site_symmetry_multiplicity
  _atom_site_fract_x
  _atom_site_fract_y
  _atom_site_fract_z
  _atom_site_occupancy
  Cu  Cu1       1.0  0.82599  0.88128  0.88128  1.0000
  H   H1        1.0  0.01910  0.88079  0.50359  1.0000
  H   H2        1.0  0.01910  0.50359  0.88079  1.0000
  H   H3        1.0  0.03173  0.09439  0.27160  1.0000
  H   H4        1.0  0.03173  0.27160  0.09439  1.0000
  H   H5        1.0  0.62468  0.49161  0.66944  1.0000
  H   H6        1.0  0.62468  0.66944  0.49161  1.0000
  H   H7        1.0  0.63404  0.25899  0.88250  1.0000
  H   H8        1.0  0.63404  0.88250  0.25899  1.0000
  C   C1        1.0  0.40247  0.80950  0.80950  1.0000
  C   C2        1.0  0.24971  0.95279  0.95279  1.0000
  C   C3        1.0  0.93435  0.01796  0.53336  1.0000
  C   C4        1.0  0.93436  0.53336  0.01796  1.0000
  C   C5        1.0  0.93939  0.13921  0.40463  1.0000
  C   C6        1.0  0.93939  0.40463  0.13921  1.0000
  C   C7        1.0  0.82827  0.31504  0.44852  1.0000
  C   C8        1.0  0.82827  0.44852  0.31504  1.0000
  C   C9        1.0  0.71646  0.35863  0.62441  1.0000
  C   C10       1.0  0.71646  0.62441  0.35863  1.0000
  C   C11       1.0  0.71974  0.22953  0.74531  1.0000
  C   C12       1.0  0.71974  0.74531  0.22953  1.0000
  N   N1        1.0  0.82645  0.06179  0.70113  1.0000
  N   N2        1.0  0.82645  0.70113  0.06179  1.0000
  O   O1        1.0  0.65387  0.76443  0.76443  1.0000
  O   O2        1.0  0.37850  0.01663  0.01663  1.0000
  O   O3        1.0  0.99838  0.99793  0.99793  1.0000
  O   O4        1.0  0.27384  0.74562  0.74562  1.0000
