data_image0
_chemical_formula_structural       Cu4H32C26N8O14
_chemical_formula_sum              "Cu4 H32 C26 N8 O14"
_cell_length_a       9.70226
_cell_length_b       9.83978
_cell_length_c       9.99247
_cell_angle_alpha    84.1855
_cell_angle_beta     73.7687
_cell_angle_gamma    79.0422

_space_group_name_H-M_alt    "P 1"
_space_group_IT_number       1

loop_
  _space_group_symop_operation_xyz
  'x, y, z'

loop_
  _atom_site_type_symbol
  _atom_site_label
  _atom_site_symmetry_multiplicity
  _atom_site_fract_x
  _atom_site_fract_y
  _atom_site_fract_z
  _atom_site_occupancy
  Cu  Cu1       1.0  0.15927  0.05293  0.93133  1.0000
  Cu  Cu2       1.0  0.84093  0.94708  0.06782  1.0000
  Cu  Cu3       1.0  0.52656  0.63406  0.07652  1.0000
  Cu  Cu4       1.0  0.47297  0.36585  0.92429  1.0000
  H   H1        1.0  0.07442  0.21416  0.74850  1.0000
  H   H2        1.0  0.92628  0.78574  0.25060  1.0000
  H   H3        1.0  0.97192  0.09251  0.80386  1.0000
  H   H4        1.0  0.02816  0.90767  0.19556  1.0000
  H   H5        1.0  0.52560  0.40541  0.19732  1.0000
  H   H6        1.0  0.47448  0.59449  0.80305  1.0000
  H   H7        1.0  0.62352  0.48888  0.26161  1.0000
  H   H8        1.0  0.37603  0.51152  0.73914  1.0000
  H   H9        1.0  0.11188  0.08941  0.55114  1.0000
  H   H10       1.0  0.88821  0.91063  0.44811  1.0000
  H   H11       1.0  0.11539  0.93156  0.65475  1.0000
  H   H12       1.0  0.88445  0.06846  0.34465  1.0000
  H   H13       1.0  0.34779  0.11368  0.61699  1.0000
  H   H14       1.0  0.65174  0.88654  0.38297  1.0000
  H   H15       1.0  0.36128  0.99065  0.49488  1.0000
  H   H16       1.0  0.63886  0.00970  0.50483  1.0000
  H   H17       1.0  0.35323  0.79969  0.67414  1.0000
  H   H18       1.0  0.64676  0.20030  0.32575  1.0000
  H   H19       1.0  0.50151  0.88635  0.65966  1.0000
  H   H20       1.0  0.49837  0.11423  0.33962  1.0000
  H   H21       1.0  0.18073  0.74665  0.33288  1.0000
  H   H22       1.0  0.81911  0.25314  0.66740  1.0000
  H   H23       1.0  0.27123  0.88112  0.35288  1.0000
  H   H24       1.0  0.72892  0.11836  0.64805  1.0000
  H   H25       1.0  0.47730  0.70596  0.39852  1.0000
  H   H26       1.0  0.52276  0.29337  0.60158  1.0000
  H   H27       1.0  0.30815  0.67781  0.51381  1.0000
  H   H28       1.0  0.69196  0.32184  0.48649  1.0000
  H   H29       1.0  0.41910  0.45219  0.44878  1.0000
  H   H30       1.0  0.58069  0.54731  0.55177  1.0000
  H   H31       1.0  0.30419  0.50235  0.33625  1.0000
  H   H32       1.0  0.69563  0.49710  0.66422  1.0000
  C   C1        1.0  0.14980  0.03358  0.63920  1.0000
  C   C2        1.0  0.85010  0.96641  0.36018  1.0000
  C   C3        1.0  0.31544  0.01494  0.60516  1.0000
  C   C4        1.0  0.68436  0.98513  0.39462  1.0000
  C   C5        1.0  0.38184  0.89822  0.69261  1.0000
  C   C6        1.0  0.61817  0.10178  0.30704  1.0000
  C   C7        1.0  0.38920  0.84000  0.92939  1.0000
  C   C8        1.0  0.61106  0.16008  0.07081  1.0000
  C   C9        1.0  0.31424  0.86393  0.08025  1.0000
  C   C10       1.0  0.68584  0.13641  0.91965  1.0000
  C   C11       1.0  0.28903  0.77526  0.31714  1.0000
  C   C12       1.0  0.71077  0.22451  0.68329  1.0000
  C   C13       1.0  0.37274  0.67383  0.40432  1.0000
  C   C14       1.0  0.62717  0.32568  0.59590  1.0000
  C   C15       1.0  0.40067  0.52451  0.36142  1.0000
  C   C16       1.0  0.59910  0.47499  0.63908  1.0000
  C   C17       1.0  0.18745  0.44170  0.08328  1.0000
  C   C18       1.0  0.81223  0.55876  0.91619  1.0000
  C   C19       1.0  0.17389  0.31872  0.02254  1.0000
  C   C20       1.0  0.82615  0.68130  0.97756  1.0000
  C   C21       1.0  0.03072  0.28353  0.08797  1.0000
  C   C22       1.0  0.96952  0.71604  0.91266  1.0000
  C   C23       1.0  0.94795  0.38948  0.18869  1.0000
  C   C24       1.0  0.05223  0.61053  0.81166  1.0000
  C   C25       1.0  0.04779  0.49087  0.18546  1.0000
  C   C26       1.0  0.95220  0.50952  0.81422  1.0000
  N   N1        1.0  0.07851  0.10876  0.76768  1.0000
  N   N2        1.0  0.92171  0.89124  0.23168  1.0000
  N   N3        1.0  0.32963  0.92025  0.84121  1.0000
  N   N4        1.0  0.67073  0.07910  0.15868  1.0000
  N   N5        1.0  0.36260  0.77368  0.16864  1.0000
  N   N6        1.0  0.63665  0.22669  0.83158  1.0000
  N   N7        1.0  0.52558  0.49816  0.23741  1.0000
  N   N8        1.0  0.47416  0.50182  0.76314  1.0000
  O   O1        1.0  0.20645  0.96490  0.10896  1.0000
  O   O2        1.0  0.79428  0.03566  0.88989  1.0000
  O   O3        1.0  0.49848  0.74075  0.89993  1.0000
  O   O4        1.0  0.50171  0.25972  0.10116  1.0000
  O   O5        1.0  0.30290  0.49419  0.04924  1.0000
  O   O6        1.0  0.69674  0.50657  0.94927  1.0000
  O   O7        1.0  0.27122  0.25319  0.92794  1.0000
  O   O8        1.0  0.72919  0.74713  0.07217  1.0000
  O   O9        1.0  0.98913  0.17820  0.05874  1.0000
  O   O10       1.0  0.01119  0.82105  0.94271  1.0000
  O   O11       1.0  0.82095  0.39454  0.26328  1.0000
  O   O12       1.0  0.17930  0.60542  0.73709  1.0000
  O   O13       1.0  0.01747  0.59425  0.25664  1.0000
  O   O14       1.0  0.98237  0.40630  0.74294  1.0000
