data_image0
_chemical_formula_structural       Co4P4H24C24N4O12
_chemical_formula_sum              "Co4 P4 H24 C24 N4 O12"
_cell_length_a       8.66977
_cell_length_b       8.77091
_cell_length_c       10.1483
_cell_angle_alpha    90
_cell_angle_beta     111.576
_cell_angle_gamma    90.0001

_space_group_name_H-M_alt    "P 1"
_space_group_IT_number       1

loop_
  _space_group_symop_operation_xyz
  'x, y, z'

loop_
  _atom_site_type_symbol
  _atom_site_label
  _atom_site_symmetry_multiplicity
  _atom_site_fract_x
  _atom_site_fract_y
  _atom_site_fract_z
  _atom_site_occupancy
  Co  Co1       1.0  0.62046  0.18063  0.94912  1.0000
  Co  Co2       1.0  0.37953  0.68064  0.55088  1.0000
  Co  Co3       1.0  0.37954  0.81936  0.05088  1.0000
  Co  Co4       1.0  0.62046  0.31937  0.44912  1.0000
  P   P1        1.0  0.41053  0.15375  0.15789  1.0000
  P   P2        1.0  0.58947  0.65375  0.34211  1.0000
  P   P3        1.0  0.58947  0.84625  0.84211  1.0000
  P   P4        1.0  0.41054  0.34625  0.65790  1.0000
  H   H1        1.0  0.96089  0.18088  0.93296  1.0000
  H   H2        1.0  0.03911  0.68089  0.56704  1.0000
  H   H3        1.0  0.03911  0.81911  0.06704  1.0000
  H   H4        1.0  0.96089  0.31911  0.43296  1.0000
  H   H5        1.0  0.24154  0.27274  0.94215  1.0000
  H   H6        1.0  0.75846  0.77274  0.55785  1.0000
  H   H7        1.0  0.75846  0.72726  0.05785  1.0000
  H   H8        1.0  0.24154  0.22726  0.44215  1.0000
  H   H9        1.0  0.35230  0.40739  0.07231  1.0000
  H   H10       1.0  0.64770  0.90740  0.42769  1.0000
  H   H11       1.0  0.64770  0.59260  0.92769  1.0000
  H   H12       1.0  0.35230  0.09261  0.57231  1.0000
  H   H13       1.0  0.73022  0.40438  0.17127  1.0000
  H   H14       1.0  0.26977  0.90438  0.32873  1.0000
  H   H15       1.0  0.26977  0.59562  0.82873  1.0000
  H   H16       1.0  0.73023  0.09562  0.67127  1.0000
  H   H17       1.0  0.98828  0.54374  0.30874  1.0000
  H   H18       1.0  0.01172  0.04375  0.19126  1.0000
  H   H19       1.0  0.01172  0.45626  0.69126  1.0000
  H   H20       1.0  0.98828  0.95625  0.80874  1.0000
  H   H21       1.0  0.24516  0.49927  0.25550  1.0000
  H   H22       1.0  0.75484  0.99927  0.24450  1.0000
  H   H23       1.0  0.75484  0.50073  0.74450  1.0000
  H   H24       1.0  0.24516  0.00073  0.75550  1.0000
  C   C1        1.0  0.12501  0.33453  0.09004  1.0000
  C   C2        1.0  0.87499  0.83453  0.40996  1.0000
  C   C3        1.0  0.87499  0.66547  0.90996  1.0000
  C   C4        1.0  0.12501  0.16547  0.59004  1.0000
  C   C5        1.0  0.27478  0.30444  0.05390  1.0000
  C   C6        1.0  0.72522  0.80445  0.44610  1.0000
  C   C7        1.0  0.72522  0.69555  0.94611  1.0000
  C   C8        1.0  0.27478  0.19555  0.55390  1.0000
  C   C9        1.0  0.97369  0.26236  0.01733  1.0000
  C   C10       1.0  0.02631  0.76237  0.48267  1.0000
  C   C11       1.0  0.02631  0.73763  0.98267  1.0000
  C   C12       1.0  0.97369  0.23763  0.51733  1.0000
  C   C13       1.0  0.84304  0.38743  0.14975  1.0000
  C   C14       1.0  0.15696  0.88744  0.35025  1.0000
  C   C15       1.0  0.15696  0.61256  0.85025  1.0000
  C   C16       1.0  0.84304  0.11256  0.64975  1.0000
  C   C17       1.0  0.13097  0.43770  0.19727  1.0000
  C   C18       1.0  0.86903  0.93770  0.30273  1.0000
  C   C19       1.0  0.86904  0.56230  0.80273  1.0000
  C   C20       1.0  0.13097  0.06230  0.69728  1.0000
  C   C21       1.0  0.98853  0.46388  0.22677  1.0000
  C   C22       1.0  0.01147  0.96388  0.27323  1.0000
  C   C23       1.0  0.01147  0.53612  0.77323  1.0000
  C   C24       1.0  0.98853  0.03612  0.72677  1.0000
  N   N1        1.0  0.83564  0.28798  0.04604  1.0000
  N   N2        1.0  0.16436  0.78799  0.45396  1.0000
  N   N3        1.0  0.16436  0.71201  0.95396  1.0000
  N   N4        1.0  0.83564  0.21201  0.54604  1.0000
  O   O1        1.0  0.56526  0.15335  0.11756  1.0000
  O   O2        1.0  0.43474  0.65335  0.38244  1.0000
  O   O3        1.0  0.43474  0.84665  0.88244  1.0000
  O   O4        1.0  0.56526  0.34665  0.61756  1.0000
  O   O5        1.0  0.31139  0.00292  0.11971  1.0000
  O   O6        1.0  0.68861  0.50292  0.38029  1.0000
  O   O7        1.0  0.68861  0.99708  0.88029  1.0000
  O   O8        1.0  0.31139  0.49708  0.61971  1.0000
  O   O9        1.0  0.45540  0.19041  0.31624  1.0000
  O   O10       1.0  0.54460  0.69041  0.18376  1.0000
  O   O11       1.0  0.54460  0.80960  0.68376  1.0000
  O   O12       1.0  0.45540  0.30959  0.81624  1.0000
