data_image0
_chemical_formula_structural       Cu4H24C24Br8N4
_chemical_formula_sum              "Cu4 H24 C24 Br8 N4"
_cell_length_a       7.26797
_cell_length_b       10.7836
_cell_length_c       10.7836
_cell_angle_alpha    76.4981
_cell_angle_beta     74.5829
_cell_angle_gamma    74.5825

_space_group_name_H-M_alt    "P 1"
_space_group_IT_number       1

loop_
  _space_group_symop_operation_xyz
  'x, y, z'

loop_
  _atom_site_type_symbol
  _atom_site_label
  _atom_site_symmetry_multiplicity
  _atom_site_fract_x
  _atom_site_fract_y
  _atom_site_fract_z
  _atom_site_occupancy
  Cu  Cu1       1.0  0.25000  0.57916  0.42084  1.0000
  Cu  Cu2       1.0  0.75000  0.42086  0.57914  1.0000
  Cu  Cu3       1.0  0.25000  0.30662  0.69338  1.0000
  Cu  Cu4       1.0  0.75000  0.69337  0.30663  1.0000
  H   H1        1.0  0.14952  0.00212  0.12047  1.0000
  H   H2        1.0  0.64952  0.12048  0.00212  1.0000
  H   H3        1.0  0.85048  0.99788  0.87952  1.0000
  H   H4        1.0  0.35047  0.87952  0.99789  1.0000
  H   H5        1.0  0.77641  0.38605  0.13104  1.0000
  H   H6        1.0  0.27641  0.13104  0.38604  1.0000
  H   H7        1.0  0.22359  0.61396  0.86895  1.0000
  H   H8        1.0  0.72358  0.86897  0.61395  1.0000
  H   H9        1.0  0.92197  0.44642  0.89445  1.0000
  H   H10       1.0  0.42196  0.89445  0.44643  1.0000
  H   H11       1.0  0.07803  0.55357  0.10555  1.0000
  H   H12       1.0  0.57802  0.10556  0.55358  1.0000
  H   H13       1.0  0.93820  0.04518  0.32292  1.0000
  H   H14       1.0  0.43822  0.32291  0.04517  1.0000
  H   H15       1.0  0.06178  0.95482  0.67709  1.0000
  H   H16       1.0  0.56181  0.67708  0.95482  1.0000
  H   H17       1.0  0.71759  0.16528  0.31097  1.0000
  H   H18       1.0  0.21760  0.31097  0.16527  1.0000
  H   H19       1.0  0.28240  0.83473  0.68902  1.0000
  H   H20       1.0  0.78241  0.68903  0.83471  1.0000
  H   H21       1.0  0.91352  0.20804  0.34466  1.0000
  H   H22       1.0  0.41353  0.34466  0.20803  1.0000
  H   H23       1.0  0.08647  0.79197  0.65534  1.0000
  H   H24       1.0  0.58649  0.65534  0.79196  1.0000
  C   C1        1.0  0.09676  0.10131  0.07248  1.0000
  C   C2        1.0  0.59677  0.07246  0.10132  1.0000
  C   C3        1.0  0.90323  0.89869  0.92753  1.0000
  C   C4        1.0  0.40324  0.92752  0.89869  1.0000
  C   C5        1.0  0.17335  0.14279  0.94050  1.0000
  C   C6        1.0  0.67336  0.94050  0.14279  1.0000
  C   C7        1.0  0.82665  0.85721  0.05951  1.0000
  C   C8        1.0  0.32663  0.05951  0.85721  1.0000
  C   C9        1.0  0.95390  0.18774  0.14561  1.0000
  C   C10       1.0  0.45390  0.14561  0.18775  1.0000
  C   C11       1.0  0.04611  0.81224  0.85439  1.0000
  C   C12       1.0  0.54610  0.85439  0.81226  1.0000
  C   C13       1.0  0.88849  0.31422  0.07999  1.0000
  C   C14       1.0  0.38850  0.07997  0.31423  1.0000
  C   C15       1.0  0.11150  0.68577  0.92003  1.0000
  C   C16       1.0  0.61150  0.92001  0.68578  1.0000
  C   C17       1.0  0.96935  0.34913  0.94829  1.0000
  C   C18       1.0  0.46933  0.94832  0.34912  1.0000
  C   C19       1.0  0.03067  0.65088  0.05169  1.0000
  C   C20       1.0  0.53065  0.05170  0.65087  1.0000
  C   C21       1.0  0.87771  0.14816  0.28834  1.0000
  C   C22       1.0  0.37772  0.28834  0.14815  1.0000
  C   C23       1.0  0.12228  0.85185  0.71166  1.0000
  C   C24       1.0  0.62230  0.71166  0.85184  1.0000
  Br  Br1       1.0  0.06608  0.53108  0.64783  1.0000
  Br  Br2       1.0  0.56607  0.64784  0.53108  1.0000
  Br  Br3       1.0  0.93394  0.46892  0.35216  1.0000
  Br  Br4       1.0  0.43392  0.35217  0.46891  1.0000
  Br  Br5       1.0  0.04741  0.79381  0.38948  1.0000
  Br  Br6       1.0  0.54745  0.38947  0.79381  1.0000
  Br  Br7       1.0  0.95255  0.20619  0.61053  1.0000
  Br  Br8       1.0  0.45262  0.61053  0.20619  1.0000
  N   N1        1.0  0.10998  0.26648  0.88023  1.0000
  N   N2        1.0  0.60997  0.88022  0.26649  1.0000
  N   N3        1.0  0.89002  0.73351  0.11977  1.0000
  N   N4        1.0  0.39002  0.11977  0.73351  1.0000
