data_image0
_chemical_formula_structural       Lu2CoH28C16O18
_chemical_formula_sum              "Lu2 Co1 H28 C16 O18"
_cell_length_a       8.8185
_cell_length_b       9.08517
_cell_length_c       10.5134
_cell_angle_alpha    80.5365
_cell_angle_beta     74.2812
_cell_angle_gamma    76.9239

_space_group_name_H-M_alt    "P 1"
_space_group_IT_number       1

loop_
  _space_group_symop_operation_xyz
  'x, y, z'

loop_
  _atom_site_type_symbol
  _atom_site_label
  _atom_site_symmetry_multiplicity
  _atom_site_fract_x
  _atom_site_fract_y
  _atom_site_fract_z
  _atom_site_occupancy
  Lu  Lu1       1.0  0.90041  0.06709  0.69646  1.0000
  Lu  Lu2       1.0  0.09958  0.93290  0.30354  1.0000
  Co  Co1       1.0  0.00000  0.00000  1.00000  1.0000
  H   H1        1.0  0.83858  0.35550  0.04652  1.0000
  H   H2        1.0  0.16143  0.64451  0.95347  1.0000
  H   H3        1.0  0.63532  0.39678  0.02904  1.0000
  H   H4        1.0  0.36469  0.60324  0.97095  1.0000
  H   H5        1.0  0.77546  0.50567  0.92787  1.0000
  H   H6        1.0  0.22456  0.49433  0.07211  1.0000
  H   H7        1.0  0.73995  0.73303  0.09317  1.0000
  H   H8        1.0  0.26008  0.26697  0.90685  1.0000
  H   H9        1.0  0.60382  0.72516  0.99521  1.0000
  H   H10       1.0  0.39619  0.27482  0.00481  1.0000
  H   H11       1.0  0.56221  0.87697  0.09081  1.0000
  H   H12       1.0  0.43780  0.12303  0.90920  1.0000
  H   H13       1.0  0.46910  0.88189  0.58332  1.0000
  H   H14       1.0  0.53089  0.11812  0.41668  1.0000
  H   H15       1.0  0.46545  0.74678  0.72794  1.0000
  H   H16       1.0  0.53454  0.25322  0.27206  1.0000
  H   H17       1.0  0.51387  0.92460  0.72892  1.0000
  H   H18       1.0  0.48611  0.07540  0.27108  1.0000
  H   H19       1.0  0.20298  0.33886  0.26322  1.0000
  H   H20       1.0  0.79703  0.66116  0.73678  1.0000
  H   H21       1.0  0.26717  0.37538  0.40014  1.0000
  H   H22       1.0  0.73281  0.62462  0.59987  1.0000
  H   H23       1.0  0.08300  0.47917  0.37177  1.0000
  H   H24       1.0  0.91699  0.52084  0.62824  1.0000
  H   H25       1.0  0.76362  0.11399  0.46856  1.0000
  H   H26       1.0  0.23636  0.88601  0.53145  1.0000
  H   H27       1.0  0.69247  0.26199  0.54837  1.0000
  H   H28       1.0  0.30752  0.73801  0.45163  1.0000
  C   C1        1.0  0.26375  0.92929  0.75067  1.0000
  C   C2        1.0  0.73624  0.07072  0.24933  1.0000
  C   C3        1.0  0.76193  0.39115  0.97642  1.0000
  C   C4        1.0  0.23807  0.60885  0.02358  1.0000
  C   C5        1.0  0.66089  0.79998  0.03168  1.0000
  C   C6        1.0  0.33915  0.20002  0.96832  1.0000
  C   C7        1.0  0.80634  0.28487  0.87136  1.0000
  C   C8        1.0  0.19366  0.71513  0.12864  1.0000
  C   C9        1.0  0.75090  0.89126  0.91625  1.0000
  C   C10       1.0  0.24910  0.10872  0.08376  1.0000
  C   C11       1.0  0.43880  0.86840  0.69218  1.0000
  C   C12       1.0  0.56120  0.13159  0.30780  1.0000
  C   C13       1.0  0.16266  0.36715  0.36576  1.0000
  C   C14       1.0  0.83733  0.63286  0.63424  1.0000
  C   C15       1.0  0.08004  0.24717  0.45563  1.0000
  C   C16       1.0  0.91995  0.75283  0.54436  1.0000
  O   O1        1.0  0.16695  0.96060  0.67289  1.0000
  O   O2        1.0  0.83304  0.03940  0.32711  1.0000
  O   O3        1.0  0.01444  0.26753  0.57646  1.0000
  O   O4        1.0  0.98555  0.73245  0.42353  1.0000
  O   O5        1.0  0.90511  0.87956  0.89457  1.0000
  O   O6        1.0  0.09488  0.12043  0.10543  1.0000
  O   O7        1.0  0.93565  0.17937  0.86431  1.0000
  O   O8        1.0  0.06434  0.82062  0.13569  1.0000
  O   O9        1.0  0.67867  0.98082  0.83573  1.0000
  O   O10       1.0  0.32134  0.01915  0.16429  1.0000
  O   O11       1.0  0.72504  0.29528  0.78737  1.0000
  O   O12       1.0  0.27496  0.70472  0.21264  1.0000
  O   O13       1.0  0.07641  0.12654  0.40955  1.0000
  O   O14       1.0  0.92358  0.87346  0.59042  1.0000
  O   O15       1.0  0.72669  0.15228  0.55933  1.0000
  O   O16       1.0  0.27330  0.84773  0.44068  1.0000
  O   O17       1.0  0.22224  0.94370  0.87346  1.0000
  O   O18       1.0  0.77776  0.05631  0.12654  1.0000
