data_image0
_chemical_formula_structural       Tb2CoH28C16O18
_chemical_formula_sum              "Tb2 Co1 H28 C16 O18"
_cell_length_a       8.86825
_cell_length_b       9.01563
_cell_length_c       10.3935
_cell_angle_alpha    82.2408
_cell_angle_beta     69.6506
_cell_angle_gamma    77.9728

_space_group_name_H-M_alt    "P 1"
_space_group_IT_number       1

loop_
  _space_group_symop_operation_xyz
  'x, y, z'

loop_
  _atom_site_type_symbol
  _atom_site_label
  _atom_site_symmetry_multiplicity
  _atom_site_fract_x
  _atom_site_fract_y
  _atom_site_fract_z
  _atom_site_occupancy
  Tb  Tb1       1.0  0.91453  0.07533  0.68919  1.0000
  Tb  Tb2       1.0  0.08547  0.92467  0.31081  1.0000
  Co  Co1       1.0  0.00000  1.00000  1.00000  1.0000
  H   H1        1.0  0.85257  0.34359  0.08039  1.0000
  H   H2        1.0  0.14743  0.65641  0.91960  1.0000
  H   H3        1.0  0.66392  0.43188  0.04992  1.0000
  H   H4        1.0  0.33608  0.56811  0.95008  1.0000
  H   H5        1.0  0.85028  0.49279  0.94989  1.0000
  H   H6        1.0  0.14972  0.50720  0.05011  1.0000
  H   H7        1.0  0.73582  0.73940  0.09207  1.0000
  H   H8        1.0  0.26418  0.26060  0.90793  1.0000
  H   H9        1.0  0.59583  0.72189  0.00624  1.0000
  H   H10       1.0  0.40417  0.27811  0.99376  1.0000
  H   H11       1.0  0.55651  0.88184  0.09944  1.0000
  H   H12       1.0  0.44349  0.11816  0.90056  1.0000
  H   H13       1.0  0.50269  0.87805  0.58147  1.0000
  H   H14       1.0  0.49732  0.12196  0.41852  1.0000
  H   H15       1.0  0.44904  0.72105  0.69975  1.0000
  H   H16       1.0  0.55097  0.27895  0.30024  1.0000
  H   H17       1.0  0.51850  0.86810  0.75041  1.0000
  H   H18       1.0  0.48151  0.13190  0.24959  1.0000
  H   H19       1.0  0.18206  0.32283  0.24477  1.0000
  H   H20       1.0  0.81793  0.67718  0.75524  1.0000
  H   H21       1.0  0.25472  0.40674  0.35413  1.0000
  H   H22       1.0  0.74528  0.59326  0.64588  1.0000
  H   H23       1.0  0.05564  0.47289  0.35186  1.0000
  H   H24       1.0  0.94436  0.52712  0.64814  1.0000
  H   H25       1.0  0.60280  0.16634  0.63281  1.0000
  H   H26       1.0  0.39721  0.83366  0.36718  1.0000
  H   H27       1.0  0.73667  0.12350  0.48725  1.0000
  H   H28       1.0  0.26333  0.87650  0.51275  1.0000
  C   C1        1.0  0.27138  0.92238  0.74613  1.0000
  C   C2        1.0  0.72862  0.07762  0.25387  1.0000
  C   C3        1.0  0.79546  0.39296  0.00279  1.0000
  C   C4        1.0  0.20454  0.60703  0.99721  1.0000
  C   C5        1.0  0.65564  0.80080  0.03539  1.0000
  C   C6        1.0  0.34435  0.19920  0.96460  1.0000
  C   C7        1.0  0.82690  0.28239  0.89704  1.0000
  C   C8        1.0  0.17309  0.71760  0.10296  1.0000
  C   C9        1.0  0.74871  0.88770  0.91012  1.0000
  C   C10       1.0  0.25129  0.11230  0.08988  1.0000
  C   C11       1.0  0.44694  0.84449  0.69061  1.0000
  C   C12       1.0  0.55306  0.15552  0.30939  1.0000
  C   C13       1.0  0.14924  0.36991  0.34414  1.0000
  C   C14       1.0  0.85075  0.63009  0.65586  1.0000
  C   C15       1.0  0.08411  0.25897  0.46098  1.0000
  C   C16       1.0  0.91588  0.74104  0.53902  1.0000
  O   O1        1.0  0.18960  0.96052  0.66281  1.0000
  O   O2        1.0  0.81040  0.03948  0.33719  1.0000
  O   O3        1.0  0.04997  0.29048  0.58399  1.0000
  O   O4        1.0  0.95002  0.70953  0.41602  1.0000
  O   O5        1.0  0.90397  0.88183  0.87948  1.0000
  O   O6        1.0  0.09603  0.11816  0.12052  1.0000
  O   O7        1.0  0.95485  0.17364  0.87529  1.0000
  O   O8        1.0  0.04515  0.82636  0.12472  1.0000
  O   O9        1.0  0.67630  0.96901  0.83115  1.0000
  O   O10       1.0  0.32369  0.03099  0.16885  1.0000
  O   O11       1.0  0.73998  0.29552  0.82130  1.0000
  O   O12       1.0  0.26001  0.70448  0.17870  1.0000
  O   O13       1.0  0.05659  0.13037  0.43881  1.0000
  O   O14       1.0  0.94340  0.86963  0.56120  1.0000
  O   O15       1.0  0.71424  0.17290  0.57479  1.0000
  O   O16       1.0  0.28576  0.82711  0.42521  1.0000
  O   O17       1.0  0.21653  0.94062  0.87456  1.0000
  O   O18       1.0  0.78348  0.05937  0.12544  1.0000
