data_image0
_chemical_formula_structural       Yb2MnH28C16O18
_chemical_formula_sum              "Yb2 Mn1 H28 C16 O18"
_cell_length_a       8.79921
_cell_length_b       9.19894
_cell_length_c       10.5306
_cell_angle_alpha    81.6549
_cell_angle_beta     71.5126
_cell_angle_gamma    77.7262

_space_group_name_H-M_alt    "P 1"
_space_group_IT_number       1

loop_
  _space_group_symop_operation_xyz
  'x, y, z'

loop_
  _atom_site_type_symbol
  _atom_site_label
  _atom_site_symmetry_multiplicity
  _atom_site_fract_x
  _atom_site_fract_y
  _atom_site_fract_z
  _atom_site_occupancy
  Yb  Yb1       1.0  0.90858  0.07414  0.68556  1.0000
  Yb  Yb2       1.0  0.09142  0.92587  0.31444  1.0000
  Mn  Mn1       1.0  0.99999  0.99998  0.00000  1.0000
  H   H1        1.0  0.82575  0.35868  0.05061  1.0000
  H   H2        1.0  0.17428  0.64130  0.94938  1.0000
  H   H3        1.0  0.62340  0.39858  0.03364  1.0000
  H   H4        1.0  0.37662  0.60141  0.96637  1.0000
  H   H5        1.0  0.77156  0.50292  0.93116  1.0000
  H   H6        1.0  0.22845  0.49708  0.06883  1.0000
  H   H7        1.0  0.73527  0.72780  0.07329  1.0000
  H   H8        1.0  0.26472  0.27219  0.92671  1.0000
  H   H9        1.0  0.58714  0.73702  0.98553  1.0000
  H   H10       1.0  0.41284  0.26299  0.01446  1.0000
  H   H11       1.0  0.56500  0.87870  0.08852  1.0000
  H   H12       1.0  0.43499  0.12131  0.91148  1.0000
  H   H13       1.0  0.48717  0.87561  0.56429  1.0000
  H   H14       1.0  0.51282  0.12442  0.43570  1.0000
  H   H15       1.0  0.46333  0.74138  0.70670  1.0000
  H   H16       1.0  0.53671  0.25862  0.29328  1.0000
  H   H17       1.0  0.52941  0.90864  0.71329  1.0000
  H   H18       1.0  0.47057  0.09139  0.28671  1.0000
  H   H19       1.0  0.10983  0.47339  0.37125  1.0000
  H   H20       1.0  0.89018  0.52661  0.62875  1.0000
  H   H21       1.0  0.08239  0.35715  0.25961  1.0000
  H   H22       1.0  0.91761  0.64285  0.74040  1.0000
  H   H23       1.0  0.26790  0.32347  0.29946  1.0000
  H   H24       1.0  0.73211  0.67652  0.70055  1.0000
  H   H25       1.0  0.75070  0.11443  0.47769  1.0000
  H   H26       1.0  0.24931  0.88556  0.52231  1.0000
  H   H27       1.0  0.67432  0.25968  0.56417  1.0000
  H   H28       1.0  0.32569  0.74031  0.43583  1.0000
  C   C1        1.0  0.80411  0.28365  0.87353  1.0000
  C   C2        1.0  0.19587  0.71631  0.12649  1.0000
  C   C3        1.0  0.27512  0.93201  0.73630  1.0000
  C   C4        1.0  0.72488  0.06802  0.26369  1.0000
  C   C5        1.0  0.75360  0.39146  0.98003  1.0000
  C   C6        1.0  0.24640  0.60854  0.01998  1.0000
  C   C7        1.0  0.07038  0.25191  0.45553  1.0000
  C   C8        1.0  0.92961  0.74809  0.54448  1.0000
  C   C9        1.0  0.75063  0.89120  0.90302  1.0000
  C   C10       1.0  0.24936  0.10879  0.09698  1.0000
  C   C11       1.0  0.65610  0.80147  0.01987  1.0000
  C   C12       1.0  0.34388  0.19852  0.98012  1.0000
  C   C13       1.0  0.45009  0.86153  0.67430  1.0000
  C   C14       1.0  0.54990  0.13846  0.32570  1.0000
  C   C15       1.0  0.13587  0.36003  0.34016  1.0000
  C   C16       1.0  0.86415  0.63997  0.65984  1.0000
  O   O1        1.0  0.23098  0.95085  0.86002  1.0000
  O   O2        1.0  0.76901  0.04914  0.13998  1.0000
  O   O3        1.0  0.18000  0.96642  0.66096  1.0000
  O   O4        1.0  0.81999  0.03358  0.33904  1.0000
  O   O5        1.0  0.01724  0.28840  0.57526  1.0000
  O   O6        1.0  0.98276  0.71161  0.42475  1.0000
  O   O7        1.0  0.90554  0.88577  0.88062  1.0000
  O   O8        1.0  0.09445  0.11423  0.11940  1.0000
  O   O9        1.0  0.68105  0.97557  0.82344  1.0000
  O   O10       1.0  0.31896  0.02444  0.17656  1.0000
  O   O11       1.0  0.93585  0.18386  0.86343  1.0000
  O   O12       1.0  0.06417  0.81614  0.13656  1.0000
  O   O13       1.0  0.71861  0.15378  0.56929  1.0000
  O   O14       1.0  0.28140  0.84621  0.43071  1.0000
  O   O15       1.0  0.72376  0.28835  0.79234  1.0000
  O   O16       1.0  0.27625  0.71165  0.20765  1.0000
  O   O17       1.0  0.06544  0.11893  0.43344  1.0000
  O   O18       1.0  0.93456  0.88108  0.56658  1.0000
