data_image0
_chemical_formula_structural       Tm2MnH28C16O18
_chemical_formula_sum              "Tm2 Mn1 H28 C16 O18"
_cell_length_a       8.84269
_cell_length_b       9.11924
_cell_length_c       10.6937
_cell_angle_alpha    80.3975
_cell_angle_beta     73.5138
_cell_angle_gamma    76.9193

_space_group_name_H-M_alt    "P 1"
_space_group_IT_number       1

loop_
  _space_group_symop_operation_xyz
  'x, y, z'

loop_
  _atom_site_type_symbol
  _atom_site_label
  _atom_site_symmetry_multiplicity
  _atom_site_fract_x
  _atom_site_fract_y
  _atom_site_fract_z
  _atom_site_occupancy
  Tm  Tm1       1.0  0.09827  0.93100  0.80960  1.0000
  Tm  Tm2       1.0  0.90173  0.06900  0.19039  1.0000
  Mn  Mn1       1.0  1.00000  0.99999  0.50000  1.0000
  H   H1        1.0  0.52521  0.12009  0.92164  1.0000
  H   H2        1.0  0.47479  0.87991  0.07836  1.0000
  H   H3        1.0  0.48190  0.07355  0.77980  1.0000
  H   H4        1.0  0.51810  0.92645  0.22020  1.0000
  H   H5        1.0  0.53201  0.25088  0.77639  1.0000
  H   H6        1.0  0.46799  0.74913  0.22361  1.0000
  H   H7        1.0  0.26160  0.27153  0.42014  1.0000
  H   H8        1.0  0.73841  0.72846  0.57984  1.0000
  H   H9        1.0  0.43648  0.12391  0.41517  1.0000
  H   H10       1.0  0.56352  0.87608  0.58482  1.0000
  H   H11       1.0  0.40287  0.27088  0.51279  1.0000
  H   H12       1.0  0.59713  0.72911  0.48719  1.0000
  H   H13       1.0  0.80053  0.66560  0.23846  1.0000
  H   H14       1.0  0.19946  0.33440  0.76155  1.0000
  H   H15       1.0  0.91647  0.52264  0.13239  1.0000
  H   H16       1.0  0.08354  0.47736  0.86761  1.0000
  H   H17       1.0  0.73074  0.62483  0.10919  1.0000
  H   H18       1.0  0.26925  0.37517  0.89081  1.0000
  H   H19       1.0  0.35996  0.51827  0.55105  1.0000
  H   H20       1.0  0.64005  0.48173  0.44895  1.0000
  H   H21       1.0  0.26889  0.65883  0.44141  1.0000
  H   H22       1.0  0.73113  0.34117  0.55859  1.0000
  H   H23       1.0  0.15318  0.53519  0.55304  1.0000
  H   H24       1.0  0.84683  0.46481  0.44697  1.0000
  H   H25       1.0  0.31692  0.73819  0.94852  1.0000
  H   H26       1.0  0.68307  0.26183  0.05147  1.0000
  H   H27       1.0  0.24157  0.88372  0.03095  1.0000
  H   H28       1.0  0.75843  0.11629  0.96905  1.0000
  C   C1        1.0  0.73183  0.06769  0.75658  1.0000
  C   C2        1.0  0.26817  0.93232  0.24342  1.0000
  C   C3        1.0  0.91920  0.75081  0.04309  1.0000
  C   C4        1.0  0.08079  0.24919  0.95692  1.0000
  C   C5        1.0  0.25138  0.10911  0.59178  1.0000
  C   C6        1.0  0.74861  0.89089  0.40821  1.0000
  C   C7        1.0  0.55697  0.13038  0.81425  1.0000
  C   C8        1.0  0.44303  0.86961  0.18576  1.0000
  C   C9        1.0  0.20004  0.70954  0.63930  1.0000
  C   C10       1.0  0.79996  0.29045  0.36071  1.0000
  C   C11       1.0  0.34155  0.20062  0.47729  1.0000
  C   C12       1.0  0.65845  0.79937  0.52270  1.0000
  C   C13       1.0  0.83730  0.63451  0.13828  1.0000
  C   C14       1.0  0.16269  0.36549  0.86172  1.0000
  C   C15       1.0  0.25016  0.59752  0.54037  1.0000
  C   C16       1.0  0.74985  0.40247  0.45964  1.0000
  O   O1        1.0  0.09794  0.11736  0.61259  1.0000
  O   O2        1.0  0.90205  0.88263  0.38741  1.0000
  O   O3        1.0  0.07224  0.81349  0.63812  1.0000
  O   O4        1.0  0.92776  0.18649  0.36189  1.0000
  O   O5        1.0  0.27647  0.84661  0.94114  1.0000
  O   O6        1.0  0.72350  0.15341  0.05886  1.0000
  O   O7        1.0  0.92806  0.87365  0.08179  1.0000
  O   O8        1.0  0.07191  0.12637  0.91822  1.0000
  O   O9        1.0  0.32353  0.02123  0.67115  1.0000
  O   O10       1.0  0.67646  0.97877  0.32885  1.0000
  O   O11       1.0  0.82829  0.03826  0.83200  1.0000
  O   O12       1.0  0.17171  0.96175  0.16800  1.0000
  O   O13       1.0  0.98014  0.72618  0.92410  1.0000
  O   O14       1.0  0.01987  0.27383  0.07591  1.0000
  O   O15       1.0  0.77498  0.04973  0.63603  1.0000
  O   O16       1.0  0.22502  0.95026  0.36397  1.0000
  O   O17       1.0  0.27663  0.70590  0.72335  1.0000
  O   O18       1.0  0.72338  0.29410  0.27664  1.0000
