data_image0
_chemical_formula_structural       Lu2MnH28C16O18
_chemical_formula_sum              "Lu2 Mn1 H28 C16 O18"
_cell_length_a       8.76811
_cell_length_b       8.91862
_cell_length_c       10.485
_cell_angle_alpha    83.9307
_cell_angle_beta     70.5494
_cell_angle_gamma    80.2744

_space_group_name_H-M_alt    "P 1"
_space_group_IT_number       1

loop_
  _space_group_symop_operation_xyz
  'x, y, z'

loop_
  _atom_site_type_symbol
  _atom_site_label
  _atom_site_symmetry_multiplicity
  _atom_site_fract_x
  _atom_site_fract_y
  _atom_site_fract_z
  _atom_site_occupancy
  Lu  Lu1       1.0  0.92090  0.07832  0.68392  1.0000
  Lu  Lu2       1.0  0.07913  0.92168  0.31607  1.0000
  Mn  Mn1       1.0  0.00000  0.00000  0.99999  1.0000
  H   H1        1.0  0.82925  0.36016  0.07161  1.0000
  H   H2        1.0  0.17068  0.63983  0.92841  1.0000
  H   H3        1.0  0.64615  0.43352  0.02993  1.0000
  H   H4        1.0  0.35376  0.56643  0.97011  1.0000
  H   H5        1.0  0.83249  0.50570  0.94160  1.0000
  H   H6        1.0  0.16738  0.49430  0.05846  1.0000
  H   H7        1.0  0.72373  0.73820  0.06814  1.0000
  H   H8        1.0  0.27625  0.26180  0.93181  1.0000
  H   H9        1.0  0.57570  0.73656  0.98335  1.0000
  H   H10       1.0  0.42427  0.26347  0.01657  1.0000
  H   H11       1.0  0.55557  0.88856  0.08436  1.0000
  H   H12       1.0  0.44439  0.11145  0.91560  1.0000
  H   H13       1.0  0.49673  0.87004  0.55619  1.0000
  H   H14       1.0  0.50328  0.12997  0.44382  1.0000
  H   H15       1.0  0.45023  0.72159  0.68422  1.0000
  H   H16       1.0  0.54979  0.27840  0.31578  1.0000
  H   H17       1.0  0.53217  0.87806  0.71450  1.0000
  H   H18       1.0  0.46784  0.12193  0.28550  1.0000
  H   H19       1.0  0.20355  0.32061  0.25212  1.0000
  H   H20       1.0  0.79651  0.67941  0.74791  1.0000
  H   H21       1.0  0.25226  0.41817  0.37178  1.0000
  H   H22       1.0  0.74779  0.58185  0.62826  1.0000
  H   H23       1.0  0.05926  0.46611  0.35202  1.0000
  H   H24       1.0  0.94078  0.53389  0.64801  1.0000
  H   H25       1.0  0.62211  0.17563  0.63271  1.0000
  H   H26       1.0  0.37792  0.82440  0.36729  1.0000
  H   H27       1.0  0.74844  0.11932  0.48909  1.0000
  H   H28       1.0  0.25159  0.88068  0.51090  1.0000
  C   C1        1.0  0.27872  0.92405  0.72992  1.0000
  C   C2        1.0  0.72130  0.07594  0.27007  1.0000
  C   C3        1.0  0.77914  0.40263  0.98977  1.0000
  C   C4        1.0  0.22078  0.59735  0.01026  1.0000
  C   C5        1.0  0.64584  0.80768  0.01510  1.0000
  C   C6        1.0  0.35413  0.19233  0.98486  1.0000
  C   C7        1.0  0.82426  0.28712  0.88431  1.0000
  C   C8        1.0  0.17570  0.71288  0.11570  1.0000
  C   C9        1.0  0.74431  0.89583  0.89570  1.0000
  C   C10       1.0  0.25567  0.10418  0.10428  1.0000
  C   C11       1.0  0.45059  0.84533  0.66582  1.0000
  C   C12       1.0  0.54942  0.15466  0.33418  1.0000
  C   C13       1.0  0.15645  0.36990  0.35108  1.0000
  C   C14       1.0  0.84362  0.63011  0.64895  1.0000
  C   C15       1.0  0.08801  0.25623  0.46221  1.0000
  C   C16       1.0  0.91204  0.74377  0.53781  1.0000
  O   O1        1.0  0.18877  0.96732  0.65366  1.0000
  O   O2        1.0  0.81125  0.03268  0.34633  1.0000
  O   O3        1.0  0.04914  0.28863  0.58482  1.0000
  O   O4        1.0  0.95091  0.71136  0.41520  1.0000
  O   O5        1.0  0.89924  0.89482  0.87363  1.0000
  O   O6        1.0  0.10074  0.10518  0.12638  1.0000
  O   O7        1.0  0.95767  0.19079  0.86734  1.0000
  O   O8        1.0  0.04230  0.80922  0.13268  1.0000
  O   O9        1.0  0.67987  0.97441  0.81365  1.0000
  O   O10       1.0  0.32013  0.02560  0.18633  1.0000
  O   O11       1.0  0.73895  0.28334  0.80886  1.0000
  O   O12       1.0  0.26105  0.71666  0.19113  1.0000
  O   O13       1.0  0.06182  0.12559  0.43709  1.0000
  O   O14       1.0  0.93822  0.87443  0.56292  1.0000
  O   O15       1.0  0.73371  0.17463  0.57244  1.0000
  O   O16       1.0  0.26633  0.82538  0.42754  1.0000
  O   O17       1.0  0.23256  0.94055  0.85600  1.0000
  O   O18       1.0  0.76745  0.05942  0.14399  1.0000
