data_image0
_chemical_formula_structural       Ho2CoH28C16O18
_chemical_formula_sum              "Ho2 Co1 H28 C16 O18"
_cell_length_a       8.77835
_cell_length_b       8.98125
_cell_length_c       10.3943
_cell_angle_alpha    83.2185
_cell_angle_beta     70.94
_cell_angle_gamma    79.0888

_space_group_name_H-M_alt    "P 1"
_space_group_IT_number       1

loop_
  _space_group_symop_operation_xyz
  'x, y, z'

loop_
  _atom_site_type_symbol
  _atom_site_label
  _atom_site_symmetry_multiplicity
  _atom_site_fract_x
  _atom_site_fract_y
  _atom_site_fract_z
  _atom_site_occupancy
  Ho  Ho1       1.0  0.92055  0.07742  0.68671  1.0000
  Ho  Ho2       1.0  0.07945  0.92259  0.31329  1.0000
  Co  Co1       1.0  0.00000  0.00001  0.00000  1.0000
  H   H1        1.0  0.84391  0.35236  0.07743  1.0000
  H   H2        1.0  0.15608  0.64763  0.92258  1.0000
  H   H3        1.0  0.65764  0.43433  0.03968  1.0000
  H   H4        1.0  0.34234  0.56565  0.96033  1.0000
  H   H5        1.0  0.84415  0.49991  0.94731  1.0000
  H   H6        1.0  0.15582  0.50009  0.05270  1.0000
  H   H7        1.0  0.73380  0.74333  0.08488  1.0000
  H   H8        1.0  0.26623  0.25668  0.91509  1.0000
  H   H9        1.0  0.59310  0.72858  0.99511  1.0000
  H   H10       1.0  0.40693  0.27142  0.00487  1.0000
  H   H11       1.0  0.55714  0.88609  0.09200  1.0000
  H   H12       1.0  0.44288  0.11392  0.90798  1.0000
  H   H13       1.0  0.50156  0.87072  0.56795  1.0000
  H   H14       1.0  0.49843  0.12925  0.43205  1.0000
  H   H15       1.0  0.45534  0.71816  0.69205  1.0000
  H   H16       1.0  0.54464  0.28182  0.30797  1.0000
  H   H17       1.0  0.53121  0.87119  0.73106  1.0000
  H   H18       1.0  0.46877  0.12880  0.26894  1.0000
  H   H19       1.0  0.19698  0.31964  0.24855  1.0000
  H   H20       1.0  0.80304  0.68034  0.75147  1.0000
  H   H21       1.0  0.24849  0.41718  0.36609  1.0000
  H   H22       1.0  0.75151  0.58282  0.63393  1.0000
  H   H23       1.0  0.05365  0.46648  0.34780  1.0000
  H   H24       1.0  0.94636  0.53351  0.65220  1.0000
  H   H25       1.0  0.61233  0.17673  0.62990  1.0000
  H   H26       1.0  0.38766  0.82327  0.37010  1.0000
  H   H27       1.0  0.74247  0.12288  0.48703  1.0000
  H   H28       1.0  0.25752  0.87713  0.51297  1.0000
  C   C1        1.0  0.27928  0.91909  0.73850  1.0000
  C   C2        1.0  0.72071  0.08091  0.26150  1.0000
  C   C3        1.0  0.78979  0.39898  0.99714  1.0000
  C   C4        1.0  0.21019  0.60103  0.00287  1.0000
  C   C5        1.0  0.65470  0.80593  0.02751  1.0000
  C   C6        1.0  0.34532  0.19408  0.97247  1.0000
  C   C7        1.0  0.82738  0.28572  0.89157  1.0000
  C   C8        1.0  0.17261  0.71429  0.10842  1.0000
  C   C9        1.0  0.74902  0.89421  0.90638  1.0000
  C   C10       1.0  0.25100  0.10579  0.09360  1.0000
  C   C11       1.0  0.45315  0.84178  0.67755  1.0000
  C   C12       1.0  0.54683  0.15819  0.32246  1.0000
  C   C13       1.0  0.15189  0.36989  0.34733  1.0000
  C   C14       1.0  0.84812  0.63011  0.65267  1.0000
  C   C15       1.0  0.08635  0.25793  0.46113  1.0000
  C   C16       1.0  0.91364  0.74207  0.53888  1.0000
  O   O1        1.0  0.19158  0.96078  0.65817  1.0000
  O   O2        1.0  0.80842  0.03922  0.34183  1.0000
  O   O3        1.0  0.05067  0.29026  0.58392  1.0000
  O   O4        1.0  0.94933  0.70974  0.41609  1.0000
  O   O5        1.0  0.90419  0.89279  0.88232  1.0000
  O   O6        1.0  0.09582  0.10722  0.11767  1.0000
  O   O7        1.0  0.96046  0.18545  0.87139  1.0000
  O   O8        1.0  0.03954  0.81456  0.12860  1.0000
  O   O9        1.0  0.68100  0.97115  0.82369  1.0000
  O   O10       1.0  0.31901  0.02886  0.17630  1.0000
  O   O11       1.0  0.73809  0.28763  0.81765  1.0000
  O   O12       1.0  0.26191  0.71238  0.18234  1.0000
  O   O13       1.0  0.05984  0.12845  0.43700  1.0000
  O   O14       1.0  0.94016  0.87156  0.56301  1.0000
  O   O15       1.0  0.72484  0.17532  0.57272  1.0000
  O   O16       1.0  0.27515  0.82470  0.42729  1.0000
  O   O17       1.0  0.23009  0.93554  0.86526  1.0000
  O   O18       1.0  0.76991  0.06448  0.13474  1.0000
