data_image0
_chemical_formula_structural       Ho2MnH28C16O18
_chemical_formula_sum              "Ho2 Mn1 H28 C16 O18"
_cell_length_a       8.89212
_cell_length_b       9.10442
_cell_length_c       10.6459
_cell_angle_alpha    81.5696
_cell_angle_beta     72.5137
_cell_angle_gamma    77.7613

_space_group_name_H-M_alt    "P 1"
_space_group_IT_number       1

loop_
  _space_group_symop_operation_xyz
  'x, y, z'

loop_
  _atom_site_type_symbol
  _atom_site_label
  _atom_site_symmetry_multiplicity
  _atom_site_fract_x
  _atom_site_fract_y
  _atom_site_fract_z
  _atom_site_occupancy
  Ho  Ho1       1.0  0.90839  0.07093  0.68605  1.0000
  Ho  Ho2       1.0  0.09162  0.92907  0.31395  1.0000
  Mn  Mn1       1.0  0.00000  1.00000  0.00000  1.0000
  H   H1        1.0  0.82800  0.36695  0.04375  1.0000
  H   H2        1.0  0.17200  0.63305  0.95626  1.0000
  H   H3        1.0  0.62751  0.40047  0.02799  1.0000
  H   H4        1.0  0.37248  0.59953  0.97202  1.0000
  H   H5        1.0  0.76764  0.50969  0.92527  1.0000
  H   H6        1.0  0.23235  0.49030  0.07473  1.0000
  H   H7        1.0  0.73445  0.73400  0.08020  1.0000
  H   H8        1.0  0.26555  0.26599  0.91979  1.0000
  H   H9        1.0  0.58916  0.73532  0.99277  1.0000
  H   H10       1.0  0.41084  0.26468  0.00721  1.0000
  H   H11       1.0  0.56585  0.88483  0.08763  1.0000
  H   H12       1.0  0.43415  0.11517  0.91236  1.0000
  H   H13       1.0  0.48046  0.87127  0.57488  1.0000
  H   H14       1.0  0.51953  0.12873  0.42512  1.0000
  H   H15       1.0  0.46818  0.74550  0.72220  1.0000
  H   H16       1.0  0.53182  0.25449  0.27781  1.0000
  H   H17       1.0  0.52139  0.92240  0.71673  1.0000
  H   H18       1.0  0.47861  0.07760  0.28327  1.0000
  H   H19       1.0  0.20233  0.31813  0.26308  1.0000
  H   H20       1.0  0.79768  0.68186  0.73693  1.0000
  H   H21       1.0  0.26950  0.38020  0.38539  1.0000
  H   H22       1.0  0.73050  0.61979  0.61461  1.0000
  H   H23       1.0  0.08451  0.47116  0.36045  1.0000
  H   H24       1.0  0.91549  0.52884  0.63954  1.0000
  H   H25       1.0  0.75146  0.11955  0.47330  1.0000
  H   H26       1.0  0.24853  0.88045  0.52671  1.0000
  H   H27       1.0  0.67417  0.26250  0.56174  1.0000
  H   H28       1.0  0.32583  0.73750  0.43826  1.0000
  C   C1        1.0  0.27192  0.92881  0.74118  1.0000
  C   C2        1.0  0.72808  0.07119  0.25883  1.0000
  C   C3        1.0  0.75456  0.39658  0.97456  1.0000
  C   C4        1.0  0.24543  0.60341  0.02544  1.0000
  C   C5        1.0  0.65632  0.80444  0.02419  1.0000
  C   C6        1.0  0.34368  0.19556  0.97579  1.0000
  C   C7        1.0  0.80473  0.28642  0.87114  1.0000
  C   C8        1.0  0.19526  0.71358  0.12888  1.0000
  C   C9        1.0  0.74971  0.89037  0.90624  1.0000
  C   C10       1.0  0.25030  0.10962  0.09375  1.0000
  C   C11       1.0  0.44622  0.86434  0.68304  1.0000
  C   C12       1.0  0.55378  0.13565  0.31696  1.0000
  C   C13       1.0  0.16451  0.36113  0.36040  1.0000
  C   C14       1.0  0.83549  0.63887  0.63960  1.0000
  C   C15       1.0  0.08229  0.25265  0.46498  1.0000
  C   C16       1.0  0.91771  0.74736  0.53502  1.0000
  O   O1        1.0  0.17884  0.95936  0.66460  1.0000
  O   O2        1.0  0.82116  0.04065  0.33540  1.0000
  O   O3        1.0  0.02691  0.28584  0.58367  1.0000
  O   O4        1.0  0.97308  0.71417  0.41633  1.0000
  O   O5        1.0  0.90263  0.88294  0.88476  1.0000
  O   O6        1.0  0.09738  0.11706  0.11525  1.0000
  O   O7        1.0  0.93345  0.18498  0.86515  1.0000
  O   O8        1.0  0.06655  0.81502  0.13486  1.0000
  O   O9        1.0  0.68089  0.97278  0.82509  1.0000
  O   O10       1.0  0.31913  0.02721  0.17489  1.0000
  O   O11       1.0  0.72660  0.29136  0.78873  1.0000
  O   O12       1.0  0.27340  0.70864  0.21128  1.0000
  O   O13       1.0  0.06511  0.12569  0.43577  1.0000
  O   O14       1.0  0.93489  0.87432  0.56423  1.0000
  O   O15       1.0  0.71981  0.15581  0.56478  1.0000
  O   O16       1.0  0.28018  0.84420  0.43522  1.0000
  O   O17       1.0  0.22606  0.94760  0.86297  1.0000
  O   O18       1.0  0.77394  0.05240  0.13703  1.0000
