data_image0
_chemical_formula_structural       Tb2MnH28C16O18
_chemical_formula_sum              "Tb2 Mn1 H28 C16 O18"
_cell_length_a       8.8973
_cell_length_b       9.10433
_cell_length_c       10.6301
_cell_angle_alpha    81.8746
_cell_angle_beta     71.853
_cell_angle_gamma    77.3156

_space_group_name_H-M_alt    "P 1"
_space_group_IT_number       1

loop_
  _space_group_symop_operation_xyz
  'x, y, z'

loop_
  _atom_site_type_symbol
  _atom_site_label
  _atom_site_symmetry_multiplicity
  _atom_site_fract_x
  _atom_site_fract_y
  _atom_site_fract_z
  _atom_site_occupancy
  Tb  Tb1       1.0  0.91448  0.07780  0.68268  1.0000
  Tb  Tb2       1.0  0.08552  0.92219  0.31732  1.0000
  Mn  Mn1       1.0  0.00000  1.00000  1.00000  1.0000
  H   H1        1.0  0.82834  0.36697  0.05475  1.0000
  H   H2        1.0  0.17166  0.63302  0.94526  1.0000
  H   H3        1.0  0.63114  0.41435  0.03075  1.0000
  H   H4        1.0  0.36887  0.58564  0.96926  1.0000
  H   H5        1.0  0.78568  0.51018  0.93115  1.0000
  H   H6        1.0  0.21432  0.48982  0.06887  1.0000
  H   H7        1.0  0.73350  0.74011  0.07309  1.0000
  H   H8        1.0  0.26650  0.25989  0.92691  1.0000
  H   H9        1.0  0.58299  0.74505  0.99057  1.0000
  H   H10       1.0  0.41700  0.25496  0.00943  1.0000
  H   H11       1.0  0.56634  0.89433  0.08492  1.0000
  H   H12       1.0  0.43366  0.10567  0.91508  1.0000
  H   H13       1.0  0.49490  0.86749  0.57655  1.0000
  H   H14       1.0  0.50510  0.13253  0.42344  1.0000
  H   H15       1.0  0.45604  0.72076  0.70524  1.0000
  H   H16       1.0  0.54397  0.27925  0.29475  1.0000
  H   H17       1.0  0.52633  0.87733  0.73407  1.0000
  H   H18       1.0  0.47367  0.12268  0.26593  1.0000
  H   H19       1.0  0.17990  0.31999  0.25486  1.0000
  H   H20       1.0  0.82009  0.68001  0.74515  1.0000
  H   H21       1.0  0.25866  0.39043  0.36582  1.0000
  H   H22       1.0  0.74135  0.60956  0.63418  1.0000
  H   H23       1.0  0.06468  0.47290  0.35626  1.0000
  H   H24       1.0  0.93533  0.52710  0.64374  1.0000
  H   H25       1.0  0.61040  0.17848  0.61452  1.0000
  H   H26       1.0  0.38961  0.82152  0.38548  1.0000
  H   H27       1.0  0.74202  0.12185  0.47896  1.0000
  H   H28       1.0  0.25798  0.87815  0.52104  1.0000
  C   C1        1.0  0.27711  0.92036  0.74028  1.0000
  C   C2        1.0  0.72289  0.07964  0.25972  1.0000
  C   C3        1.0  0.76102  0.40044  0.98168  1.0000
  C   C4        1.0  0.23898  0.59955  0.01833  1.0000
  C   C5        1.0  0.65396  0.81185  0.01933  1.0000
  C   C6        1.0  0.34603  0.18816  0.98067  1.0000
  C   C7        1.0  0.81111  0.28766  0.87910  1.0000
  C   C8        1.0  0.18889  0.71235  0.12090  1.0000
  C   C9        1.0  0.74695  0.89616  0.89972  1.0000
  C   C10       1.0  0.25305  0.10384  0.10028  1.0000
  C   C11       1.0  0.44971  0.84348  0.68428  1.0000
  C   C12       1.0  0.55029  0.15653  0.31572  1.0000
  C   C13       1.0  0.15041  0.36500  0.35133  1.0000
  C   C14       1.0  0.84960  0.63498  0.64865  1.0000
  C   C15       1.0  0.07981  0.25688  0.46233  1.0000
  C   C16       1.0  0.92019  0.74312  0.53766  1.0000
  O   O1        1.0  0.18890  0.96095  0.66092  1.0000
  O   O2        1.0  0.81110  0.03905  0.33908  1.0000
  O   O3        1.0  0.03951  0.29039  0.58147  1.0000
  O   O4        1.0  0.96050  0.70961  0.41853  1.0000
  O   O5        1.0  0.89877  0.89412  0.88065  1.0000
  O   O6        1.0  0.10122  0.10589  0.11936  1.0000
  O   O7        1.0  0.94533  0.19102  0.86697  1.0000
  O   O8        1.0  0.05468  0.80897  0.13303  1.0000
  O   O9        1.0  0.67939  0.97185  0.81550  1.0000
  O   O10       1.0  0.32060  0.02815  0.18449  1.0000
  O   O11       1.0  0.72752  0.28722  0.80235  1.0000
  O   O12       1.0  0.27248  0.71278  0.19765  1.0000
  O   O13       1.0  0.05608  0.12925  0.43875  1.0000
  O   O14       1.0  0.94393  0.87075  0.56125  1.0000
  O   O15       1.0  0.72205  0.17387  0.56210  1.0000
  O   O16       1.0  0.27795  0.82613  0.43790  1.0000
  O   O17       1.0  0.22846  0.93839  0.86310  1.0000
  O   O18       1.0  0.77154  0.06161  0.13690  1.0000
