data_image0
_chemical_formula_structural       Gd2MnH28C16O18
_chemical_formula_sum              "Gd2 Mn1 H28 C16 O18"
_cell_length_a       8.87251
_cell_length_b       9.11818
_cell_length_c       10.6484
_cell_angle_alpha    81.9271
_cell_angle_beta     72.247
_cell_angle_gamma    76.2304

_space_group_name_H-M_alt    "P 1"
_space_group_IT_number       1

loop_
  _space_group_symop_operation_xyz
  'x, y, z'

loop_
  _atom_site_type_symbol
  _atom_site_label
  _atom_site_symmetry_multiplicity
  _atom_site_fract_x
  _atom_site_fract_y
  _atom_site_fract_z
  _atom_site_occupancy
  Gd  Gd1       1.0  0.91560  0.07953  0.68208  1.0000
  Gd  Gd2       1.0  0.08441  0.92048  0.31792  1.0000
  Mn  Mn1       1.0  0.00000  0.00001  0.00000  1.0000
  H   H1        1.0  0.82759  0.36909  0.05565  1.0000
  H   H2        1.0  0.17236  0.63093  0.94435  1.0000
  H   H3        1.0  0.63178  0.42668  0.02588  1.0000
  H   H4        1.0  0.36818  0.57332  0.97411  1.0000
  H   H5        1.0  0.79307  0.51326  0.92996  1.0000
  H   H6        1.0  0.20687  0.48675  0.07003  1.0000
  H   H7        1.0  0.73656  0.73725  0.06490  1.0000
  H   H8        1.0  0.26347  0.26274  0.93510  1.0000
  H   H9        1.0  0.57730  0.75615  0.98714  1.0000
  H   H10       1.0  0.42272  0.24384  0.01287  1.0000
  H   H11       1.0  0.57294  0.89855  0.08429  1.0000
  H   H12       1.0  0.42710  0.10144  0.91571  1.0000
  H   H13       1.0  0.49519  0.83499  0.58357  1.0000
  H   H14       1.0  0.50481  0.16499  0.41644  1.0000
  H   H15       1.0  0.45900  0.70666  0.72690  1.0000
  H   H16       1.0  0.54099  0.29333  0.27311  1.0000
  H   H17       1.0  0.53069  0.87021  0.73308  1.0000
  H   H18       1.0  0.46932  0.12978  0.26692  1.0000
  H   H19       1.0  0.17003  0.31965  0.25510  1.0000
  H   H20       1.0  0.82998  0.68035  0.74490  1.0000
  H   H21       1.0  0.24812  0.39617  0.36292  1.0000
  H   H22       1.0  0.75188  0.60384  0.63708  1.0000
  H   H23       1.0  0.04974  0.47230  0.35653  1.0000
  H   H24       1.0  0.95027  0.52770  0.64347  1.0000
  H   H25       1.0  0.60715  0.18235  0.61375  1.0000
  H   H26       1.0  0.39285  0.81765  0.38625  1.0000
  H   H27       1.0  0.73867  0.12762  0.47769  1.0000
  H   H28       1.0  0.26134  0.87238  0.52231  1.0000
  C   C1        1.0  0.27943  0.91060  0.74361  1.0000
  C   C2        1.0  0.72058  0.08941  0.25639  1.0000
  C   C3        1.0  0.76296  0.40584  0.98028  1.0000
  C   C4        1.0  0.23699  0.59416  0.01972  1.0000
  C   C5        1.0  0.65483  0.81557  0.01511  1.0000
  C   C6        1.0  0.34520  0.18443  0.98490  1.0000
  C   C7        1.0  0.81239  0.29155  0.87876  1.0000
  C   C8        1.0  0.18759  0.70845  0.12123  1.0000
  C   C9        1.0  0.74669  0.89965  0.89684  1.0000
  C   C10       1.0  0.25334  0.10034  0.10316  1.0000
  C   C11       1.0  0.45193  0.82679  0.69180  1.0000
  C   C12       1.0  0.54806  0.17319  0.30821  1.0000
  C   C13       1.0  0.14107  0.36614  0.35073  1.0000
  C   C14       1.0  0.85893  0.63386  0.64927  1.0000
  C   C15       1.0  0.07841  0.25705  0.46226  1.0000
  C   C16       1.0  0.92160  0.74295  0.53774  1.0000
  O   O1        1.0  0.19268  0.95432  0.66247  1.0000
  O   O2        1.0  0.80733  0.04569  0.33753  1.0000
  O   O3        1.0  0.04364  0.28973  0.58087  1.0000
  O   O4        1.0  0.95637  0.71027  0.41912  1.0000
  O   O5        1.0  0.89851  0.89720  0.87994  1.0000
  O   O6        1.0  0.10151  0.10280  0.12005  1.0000
  O   O7        1.0  0.94774  0.19307  0.86697  1.0000
  O   O8        1.0  0.05224  0.80694  0.13303  1.0000
  O   O9        1.0  0.67863  0.97528  0.81206  1.0000
  O   O10       1.0  0.32139  0.02471  0.18794  1.0000
  O   O11       1.0  0.72719  0.29200  0.80259  1.0000
  O   O12       1.0  0.27281  0.70800  0.19740  1.0000
  O   O13       1.0  0.05489  0.12940  0.43948  1.0000
  O   O14       1.0  0.94512  0.87060  0.56052  1.0000
  O   O15       1.0  0.71854  0.17874  0.56130  1.0000
  O   O16       1.0  0.28147  0.82127  0.43870  1.0000
  O   O17       1.0  0.22944  0.93177  0.86558  1.0000
  O   O18       1.0  0.77056  0.06824  0.13442  1.0000
