data_image0
_chemical_formula_structural       Gd2CoH28C16O18
_chemical_formula_sum              "Gd2 Co1 H28 C16 O18"
_cell_length_a       8.84397
_cell_length_b       9.10466
_cell_length_c       10.5225
_cell_angle_alpha    81.695
_cell_angle_beta     71.422
_cell_angle_gamma    78.4071

_space_group_name_H-M_alt    "P 1"
_space_group_IT_number       1

loop_
  _space_group_symop_operation_xyz
  'x, y, z'

loop_
  _atom_site_type_symbol
  _atom_site_label
  _atom_site_symmetry_multiplicity
  _atom_site_fract_x
  _atom_site_fract_y
  _atom_site_fract_z
  _atom_site_occupancy
  Gd  Gd1       1.0  0.91027  0.07046  0.68969  1.0000
  Gd  Gd2       1.0  0.08972  0.92955  0.31031  1.0000
  Co  Co1       1.0  0.00000  0.99999  0.99999  1.0000
  H   H1        1.0  0.82561  0.35282  0.06681  1.0000
  H   H2        1.0  0.17441  0.64718  0.93320  1.0000
  H   H3        1.0  0.63782  0.42423  0.02846  1.0000
  H   H4        1.0  0.36218  0.57579  0.97152  1.0000
  H   H5        1.0  0.81606  0.49894  0.93648  1.0000
  H   H6        1.0  0.18393  0.50106  0.06353  1.0000
  H   H7        1.0  0.73955  0.74235  0.10118  1.0000
  H   H8        1.0  0.26046  0.25764  0.89882  1.0000
  H   H9        1.0  0.59975  0.72107  0.01485  1.0000
  H   H10       1.0  0.40026  0.27892  0.98516  1.0000
  H   H11       1.0  0.56201  0.88065  0.10280  1.0000
  H   H12       1.0  0.43800  0.11934  0.89720  1.0000
  H   H13       1.0  0.49174  0.86948  0.57784  1.0000
  H   H14       1.0  0.50826  0.13051  0.42217  1.0000
  H   H15       1.0  0.45399  0.72581  0.71351  1.0000
  H   H16       1.0  0.54601  0.27418  0.28650  1.0000
  H   H17       1.0  0.52494  0.88661  0.73486  1.0000
  H   H18       1.0  0.47506  0.11340  0.26514  1.0000
  H   H19       1.0  0.19410  0.32163  0.25428  1.0000
  H   H20       1.0  0.80584  0.67838  0.74570  1.0000
  H   H21       1.0  0.27056  0.38723  0.36984  1.0000
  H   H22       1.0  0.72941  0.61280  0.63013  1.0000
  H   H23       1.0  0.07940  0.47426  0.35601  1.0000
  H   H24       1.0  0.92058  0.52575  0.64400  1.0000
  H   H25       1.0  0.66039  0.25934  0.56940  1.0000
  H   H26       1.0  0.33961  0.74066  0.43061  1.0000
  H   H27       1.0  0.74366  0.11958  0.47711  1.0000
  H   H28       1.0  0.25635  0.88040  0.52288  1.0000
  C   C1        1.0  0.27429  0.92172  0.74434  1.0000
  C   C2        1.0  0.72571  0.07827  0.25566  1.0000
  C   C3        1.0  0.76953  0.39555  0.98689  1.0000
  C   C4        1.0  0.23047  0.60445  0.01311  1.0000
  C   C5        1.0  0.65952  0.80087  0.04250  1.0000
  C   C6        1.0  0.34050  0.19912  0.95750  1.0000
  C   C7        1.0  0.81312  0.28300  0.88449  1.0000
  C   C8        1.0  0.18688  0.71701  0.11552  1.0000
  C   C9        1.0  0.74968  0.88640  0.91861  1.0000
  C   C10       1.0  0.25033  0.11360  0.08139  1.0000
  C   C11       1.0  0.44765  0.84804  0.68754  1.0000
  C   C12       1.0  0.55235  0.15195  0.31247  1.0000
  C   C13       1.0  0.16127  0.36566  0.35247  1.0000
  C   C14       1.0  0.83870  0.63435  0.64752  1.0000
  C   C15       1.0  0.08339  0.25732  0.46374  1.0000
  C   C16       1.0  0.91660  0.74269  0.53626  1.0000
  O   O1        1.0  0.18506  0.95602  0.66444  1.0000
  O   O2        1.0  0.81495  0.04398  0.33556  1.0000
  O   O3        1.0  0.03263  0.29191  0.58422  1.0000
  O   O4        1.0  0.96736  0.70810  0.41578  1.0000
  O   O5        1.0  0.90373  0.88669  0.89318  1.0000
  O   O6        1.0  0.09628  0.11331  0.10682  1.0000
  O   O7        1.0  0.94430  0.18405  0.87260  1.0000
  O   O8        1.0  0.05571  0.81596  0.12740  1.0000
  O   O9        1.0  0.67918  0.95888  0.83528  1.0000
  O   O10       1.0  0.32083  0.04111  0.16472  1.0000
  O   O11       1.0  0.72949  0.28604  0.80623  1.0000
  O   O12       1.0  0.27052  0.71397  0.19377  1.0000
  O   O13       1.0  0.06475  0.12845  0.43827  1.0000
  O   O14       1.0  0.93526  0.87154  0.56174  1.0000
  O   O15       1.0  0.71282  0.15505  0.57053  1.0000
  O   O16       1.0  0.28719  0.84495  0.42947  1.0000
  O   O17       1.0  0.22558  0.94242  0.86773  1.0000
  O   O18       1.0  0.77441  0.05758  0.13228  1.0000
