data_image0
_chemical_formula_structural       Er2CoH28C16O18
_chemical_formula_sum              "Er2 Co1 H28 C16 O18"
_cell_length_a       8.74738
_cell_length_b       8.91376
_cell_length_c       10.3666
_cell_angle_alpha    84.1455
_cell_angle_beta     70.5774
_cell_angle_gamma    80.6857

_space_group_name_H-M_alt    "P 1"
_space_group_IT_number       1

loop_
  _space_group_symop_operation_xyz
  'x, y, z'

loop_
  _atom_site_type_symbol
  _atom_site_label
  _atom_site_symmetry_multiplicity
  _atom_site_fract_x
  _atom_site_fract_y
  _atom_site_fract_z
  _atom_site_occupancy
  Er  Er1       1.0  0.92358  0.07805  0.68683  1.0000
  Er  Er2       1.0  0.07645  0.92197  0.31316  1.0000
  Co  Co1       1.0  0.00001  0.99999  1.00000  1.0000
  H   H1        1.0  0.85178  0.35285  0.08147  1.0000
  H   H2        1.0  0.14822  0.64711  0.91853  1.0000
  H   H3        1.0  0.66958  0.43705  0.04155  1.0000
  H   H4        1.0  0.33042  0.56291  0.95846  1.0000
  H   H5        1.0  0.86122  0.49988  0.95067  1.0000
  H   H6        1.0  0.13877  0.50011  0.04936  1.0000
  H   H7        1.0  0.72889  0.74481  0.08335  1.0000
  H   H8        1.0  0.27112  0.25522  0.91665  1.0000
  H   H9        1.0  0.59096  0.72375  0.99208  1.0000
  H   H10       1.0  0.40905  0.27625  0.00791  1.0000
  H   H11       1.0  0.55136  0.88284  0.09085  1.0000
  H   H12       1.0  0.44864  0.11717  0.90914  1.0000
  H   H13       1.0  0.50237  0.87105  0.56398  1.0000
  H   H14       1.0  0.49764  0.12886  0.43603  1.0000
  H   H15       1.0  0.44959  0.71742  0.68624  1.0000
  H   H16       1.0  0.55037  0.28252  0.31379  1.0000
  H   H17       1.0  0.53046  0.86901  0.72837  1.0000
  H   H18       1.0  0.46954  0.13092  0.27165  1.0000
  H   H19       1.0  0.19631  0.32286  0.24756  1.0000
  H   H20       1.0  0.80363  0.67721  0.75244  1.0000
  H   H21       1.0  0.25275  0.42194  0.36371  1.0000
  H   H22       1.0  0.74721  0.57814  0.63627  1.0000
  H   H23       1.0  0.05567  0.46773  0.35124  1.0000
  H   H24       1.0  0.94427  0.53231  0.64879  1.0000
  H   H25       1.0  0.74445  0.12247  0.48980  1.0000
  H   H26       1.0  0.25558  0.87752  0.51020  1.0000
  H   H27       1.0  0.61679  0.17253  0.63581  1.0000
  H   H28       1.0  0.38323  0.82744  0.36419  1.0000
  C   C1        1.0  0.27909  0.91952  0.73597  1.0000
  C   C2        1.0  0.72092  0.08046  0.26403  1.0000
  C   C3        1.0  0.80140  0.39989  0.00000  1.0000
  C   C4        1.0  0.19860  0.60009  0.00001  1.0000
  C   C5        1.0  0.65058  0.80449  0.02583  1.0000
  C   C6        1.0  0.34941  0.19555  0.97416  1.0000
  C   C7        1.0  0.83660  0.28562  0.89373  1.0000
  C   C8        1.0  0.16342  0.71437  0.10626  1.0000
  C   C9        1.0  0.74643  0.89442  0.90490  1.0000
  C   C10       1.0  0.25357  0.10560  0.09509  1.0000
  C   C11       1.0  0.45166  0.84122  0.67367  1.0000
  C   C12       1.0  0.54834  0.15872  0.32635  1.0000
  C   C13       1.0  0.15418  0.37252  0.34742  1.0000
  C   C14       1.0  0.84576  0.62754  0.65259  1.0000
  C   C15       1.0  0.09010  0.25926  0.46160  1.0000
  C   C16       1.0  0.90991  0.74078  0.53840  1.0000
  O   O1        1.0  0.19254  0.96251  0.65594  1.0000
  O   O2        1.0  0.80749  0.03749  0.34405  1.0000
  O   O3        1.0  0.05608  0.29212  0.58496  1.0000
  O   O4        1.0  0.94391  0.70792  0.41504  1.0000
  O   O5        1.0  0.90228  0.89449  0.87987  1.0000
  O   O6        1.0  0.09772  0.10551  0.12012  1.0000
  O   O7        1.0  0.96850  0.18614  0.87155  1.0000
  O   O8        1.0  0.03152  0.81386  0.12844  1.0000
  O   O9        1.0  0.68001  0.97093  0.82277  1.0000
  O   O10       1.0  0.31999  0.02910  0.17722  1.0000
  O   O11       1.0  0.74608  0.28587  0.82107  1.0000
  O   O12       1.0  0.25394  0.71413  0.17891  1.0000
  O   O13       1.0  0.06241  0.12793  0.43789  1.0000
  O   O14       1.0  0.93763  0.87210  0.56210  1.0000
  O   O15       1.0  0.72854  0.17545  0.57586  1.0000
  O   O16       1.0  0.27148  0.82454  0.42414  1.0000
  O   O17       1.0  0.22970  0.93557  0.86354  1.0000
  O   O18       1.0  0.77031  0.06440  0.13646  1.0000
