data_image0
_chemical_formula_structural       Er2MnH28C16O18
_chemical_formula_sum              "Er2 Mn1 H28 C16 O18"
_cell_length_a       8.86276
_cell_length_b       9.05956
_cell_length_c       10.569
_cell_angle_alpha    81.6702
_cell_angle_beta     71.5327
_cell_angle_gamma    77.321

_space_group_name_H-M_alt    "P 1"
_space_group_IT_number       1

loop_
  _space_group_symop_operation_xyz
  'x, y, z'

loop_
  _atom_site_type_symbol
  _atom_site_label
  _atom_site_symmetry_multiplicity
  _atom_site_fract_x
  _atom_site_fract_y
  _atom_site_fract_z
  _atom_site_occupancy
  Er  Er1       1.0  0.08382  0.92198  0.81855  1.0000
  Er  Er2       1.0  0.91618  0.07802  0.18145  1.0000
  Mn  Mn1       1.0  0.00001  1.00000  0.50000  1.0000
  H   H1        1.0  0.50488  0.12554  0.93147  1.0000
  H   H2        1.0  0.49515  0.87443  0.06853  1.0000
  H   H3        1.0  0.47007  0.10873  0.77580  1.0000
  H   H4        1.0  0.52992  0.89124  0.22421  1.0000
  H   H5        1.0  0.53618  0.27107  0.79848  1.0000
  H   H6        1.0  0.46382  0.72891  0.20152  1.0000
  H   H7        1.0  0.26679  0.26316  0.42974  1.0000
  H   H8        1.0  0.73319  0.73685  0.57025  1.0000
  H   H9        1.0  0.43546  0.10867  0.41637  1.0000
  H   H10       1.0  0.56452  0.89134  0.58362  1.0000
  H   H11       1.0  0.41558  0.25591  0.51504  1.0000
  H   H12       1.0  0.58441  0.74410  0.48495  1.0000
  H   H13       1.0  0.81112  0.67982  0.24867  1.0000
  H   H14       1.0  0.18886  0.32022  0.75133  1.0000
  H   H15       1.0  0.94180  0.52996  0.14898  1.0000
  H   H16       1.0  0.05820  0.47006  0.85102  1.0000
  H   H17       1.0  0.74796  0.59894  0.13275  1.0000
  H   H18       1.0  0.25203  0.40108  0.86725  1.0000
  H   H19       1.0  0.35286  0.52009  0.52841  1.0000
  H   H20       1.0  0.64714  0.47989  0.47161  1.0000
  H   H21       1.0  0.24869  0.65234  0.42603  1.0000
  H   H22       1.0  0.75132  0.34764  0.57399  1.0000
  H   H23       1.0  0.14367  0.52503  0.54754  1.0000
  H   H24       1.0  0.85634  0.47496  0.45248  1.0000
  H   H25       1.0  0.38416  0.81197  0.88466  1.0000
  H   H26       1.0  0.61585  0.18803  0.11534  1.0000
  H   H27       1.0  0.25520  0.87759  0.01989  1.0000
  H   H28       1.0  0.74481  0.12242  0.98010  1.0000
  C   C1        1.0  0.72173  0.07440  0.76335  1.0000
  C   C2        1.0  0.27827  0.92559  0.23665  1.0000
  C   C3        1.0  0.91831  0.74478  0.03995  1.0000
  C   C4        1.0  0.08169  0.25524  0.96004  1.0000
  C   C5        1.0  0.25167  0.10248  0.60229  1.0000
  C   C6        1.0  0.74833  0.89752  0.39770  1.0000
  C   C7        1.0  0.54723  0.14755  0.82242  1.0000
  C   C8        1.0  0.45277  0.85242  0.17758  1.0000
  C   C9        1.0  0.18810  0.70938  0.62692  1.0000
  C   C10       1.0  0.81192  0.29060  0.37309  1.0000
  C   C11       1.0  0.34599  0.18964  0.48351  1.0000
  C   C12       1.0  0.65400  0.81037  0.51648  1.0000
  C   C13       1.0  0.84962  0.63382  0.15118  1.0000
  C   C14       1.0  0.15037  0.36622  0.84882  1.0000
  C   C15       1.0  0.23799  0.59377  0.52606  1.0000
  C   C16       1.0  0.76202  0.40621  0.47395  1.0000
  O   O1        1.0  0.09892  0.10576  0.62182  1.0000
  O   O2        1.0  0.90107  0.89424  0.37817  1.0000
  O   O3        1.0  0.05556  0.80868  0.63505  1.0000
  O   O4        1.0  0.94445  0.19132  0.36495  1.0000
  O   O5        1.0  0.27169  0.82255  0.93875  1.0000
  O   O6        1.0  0.72832  0.17745  0.06125  1.0000
  O   O7        1.0  0.94141  0.87317  0.06362  1.0000
  O   O8        1.0  0.05859  0.12684  0.93638  1.0000
  O   O9        1.0  0.31892  0.02304  0.68597  1.0000
  O   O10       1.0  0.68109  0.97697  0.31401  1.0000
  O   O11       1.0  0.81213  0.03488  0.84143  1.0000
  O   O12       1.0  0.18788  0.96513  0.15856  1.0000
  O   O13       1.0  0.95893  0.71251  0.91964  1.0000
  O   O14       1.0  0.04105  0.28750  0.08036  1.0000
  O   O15       1.0  0.76957  0.05854  0.63916  1.0000
  O   O16       1.0  0.23043  0.94145  0.36083  1.0000
  O   O17       1.0  0.27002  0.71176  0.70481  1.0000
  O   O18       1.0  0.72998  0.28823  0.29521  1.0000
