data_image0
_chemical_formula_structural       Tb2CoH32C16O20
_chemical_formula_sum              "Tb2 Co1 H32 C16 O20"
_cell_length_a       8.03
_cell_length_b       9.73434
_cell_length_c       11.2388
_cell_angle_alpha    111.745
_cell_angle_beta     105.663
_cell_angle_gamma    92.5269

_space_group_name_H-M_alt    "P 1"
_space_group_IT_number       1

loop_
  _space_group_symop_operation_xyz
  'x, y, z'

loop_
  _atom_site_type_symbol
  _atom_site_label
  _atom_site_symmetry_multiplicity
  _atom_site_fract_x
  _atom_site_fract_y
  _atom_site_fract_z
  _atom_site_occupancy
  Tb  Tb1       1.0  0.89991  0.06484  0.66007  1.0000
  Tb  Tb2       1.0  0.10009  0.93515  0.33993  1.0000
  Co  Co1       1.0  1.00000  0.00000  0.00000  1.0000
  H   H1        1.0  0.57804  0.98520  0.93305  1.0000
  H   H2        1.0  0.42195  0.01482  0.06694  1.0000
  H   H3        1.0  0.40593  0.04731  0.83283  1.0000
  H   H4        1.0  0.59406  0.95270  0.16716  1.0000
  H   H5        1.0  0.58331  0.17769  0.96723  1.0000
  H   H6        1.0  0.41668  0.82232  0.03275  1.0000
  H   H7        1.0  0.28940  0.69559  0.67008  1.0000
  H   H8        1.0  0.71062  0.30442  0.32995  1.0000
  H   H9        1.0  0.06693  0.60963  0.60451  1.0000
  H   H10       1.0  0.93310  0.39037  0.39550  1.0000
  H   H11       1.0  0.19818  0.61371  0.76250  1.0000
  H   H12       1.0  0.80184  0.38629  0.23752  1.0000
  H   H13       1.0  0.27874  0.38139  0.76896  1.0000
  H   H14       1.0  0.72126  0.61860  0.23103  1.0000
  H   H15       1.0  0.39252  0.43499  0.66942  1.0000
  H   H16       1.0  0.60749  0.56501  0.33058  1.0000
  H   H17       1.0  0.46042  0.29648  0.73032  1.0000
  H   H18       1.0  0.53958  0.70352  0.26968  1.0000
  H   H19       1.0  0.39501  0.41650  0.99064  1.0000
  H   H20       1.0  0.60497  0.58351  0.00935  1.0000
  H   H21       1.0  0.44466  0.35223  0.12533  1.0000
  H   H22       1.0  0.55533  0.64777  0.87466  1.0000
  H   H23       1.0  0.28497  0.47102  0.11450  1.0000
  H   H24       1.0  0.71502  0.52898  0.88550  1.0000
  H   H25       1.0  0.76538  0.30774  0.62248  1.0000
  H   H26       1.0  0.23462  0.69226  0.37753  1.0000
  H   H27       1.0  0.93147  0.39805  0.74969  1.0000
  H   H28       1.0  0.06853  0.60195  0.25032  1.0000
  H   H29       1.0  0.59805  0.05073  0.41821  1.0000
  H   H30       1.0  0.40195  0.94927  0.58179  1.0000
  H   H31       1.0  0.77908  0.10424  0.40128  1.0000
  H   H32       1.0  0.22092  0.89576  0.59872  1.0000
  C   C1        1.0  0.65623  0.05461  0.79615  1.0000
  C   C2        1.0  0.34377  0.94539  0.20385  1.0000
  C   C3        1.0  0.54604  0.06496  0.88602  1.0000
  C   C4        1.0  0.45396  0.93505  0.11397  1.0000
  C   C5        1.0  0.11512  0.82306  0.76790  1.0000
  C   C6        1.0  0.88489  0.17694  0.23211  1.0000
  C   C7        1.0  0.19720  0.24454  0.97145  1.0000
  C   C8        1.0  0.80279  0.75545  0.02854  1.0000
  C   C9        1.0  0.17238  0.67646  0.69825  1.0000
  C   C10       1.0  0.82764  0.32354  0.30177  1.0000
  C   C11       1.0  0.34530  0.34318  0.69211  1.0000
  C   C12       1.0  0.65471  0.65682  0.30789  1.0000
  C   C13       1.0  0.23078  0.21949  0.56562  1.0000
  C   C14       1.0  0.76922  0.78051  0.43438  1.0000
  C   C15       1.0  0.34094  0.37852  0.05495  1.0000
  C   C16       1.0  0.65905  0.62148  0.94505  1.0000
  O   O1        1.0  0.09734  0.14240  0.56830  1.0000
  O   O2        1.0  0.90266  0.85760  0.43169  1.0000
  O   O3        1.0  0.81665  0.03832  0.83420  1.0000
  O   O4        1.0  0.18335  0.96169  0.16580  1.0000
  O   O5        1.0  0.26963  0.18481  0.45753  1.0000
  O   O6        1.0  0.73038  0.81519  0.54247  1.0000
  O   O7        1.0  0.10832  0.91875  0.71322  1.0000
  O   O8        1.0  0.89168  0.08124  0.28678  1.0000
  O   O9        1.0  0.59610  0.06614  0.68283  1.0000
  O   O10       1.0  0.40391  0.93386  0.31716  1.0000
  O   O11       1.0  0.18452  0.15153  0.02522  1.0000
  O   O12       1.0  0.81546  0.84847  0.97478  1.0000
  O   O13       1.0  0.10156  0.23761  0.85810  1.0000
  O   O14       1.0  0.89845  0.76238  0.14190  1.0000
  O   O15       1.0  0.07743  0.83936  0.87396  1.0000
  O   O16       1.0  0.92256  0.16064  0.12605  1.0000
  O   O17       1.0  0.82553  0.32510  0.71671  1.0000
  O   O18       1.0  0.17447  0.67490  0.28329  1.0000
  O   O19       1.0  0.71626  0.11415  0.46912  1.0000
  O   O20       1.0  0.28374  0.88585  0.53087  1.0000
