data_image0
_chemical_formula_structural       Tb4H40C24O26
_chemical_formula_sum              "Tb4 H40 C24 O26"
_cell_length_a       8.37329
_cell_length_b       11.4053
_cell_length_c       11.4053
_cell_angle_alpha    91.7016
_cell_angle_beta     107.608
_cell_angle_gamma    107.608

_space_group_name_H-M_alt    "P 1"
_space_group_IT_number       1

loop_
  _space_group_symop_operation_xyz
  'x, y, z'

loop_
  _atom_site_type_symbol
  _atom_site_label
  _atom_site_symmetry_multiplicity
  _atom_site_fract_x
  _atom_site_fract_y
  _atom_site_fract_z
  _atom_site_occupancy
  Tb  Tb1       1.0  0.66322  0.82387  0.53907  1.0000
  Tb  Tb2       1.0  0.16322  0.53907  0.82387  1.0000
  Tb  Tb3       1.0  0.40652  0.67373  0.18756  1.0000
  Tb  Tb4       1.0  0.90652  0.18756  0.67372  1.0000
  H   H1        1.0  0.87956  0.48696  0.48919  1.0000
  H   H2        1.0  0.37956  0.48919  0.48696  1.0000
  H   H3        1.0  0.76503  0.41901  0.32948  1.0000
  H   H4        1.0  0.26504  0.32948  0.41901  1.0000
  H   H5        1.0  0.66781  0.37344  0.44569  1.0000
  H   H6        1.0  0.16782  0.44569  0.37345  1.0000
  H   H7        1.0  0.87783  0.04301  0.18650  1.0000
  H   H8        1.0  0.37782  0.18650  0.04300  1.0000
  H   H9        1.0  0.00315  0.97018  0.29769  1.0000
  H   H10       1.0  0.50315  0.29769  0.97018  1.0000
  H   H11       1.0  0.89327  0.06111  0.34798  1.0000
  H   H12       1.0  0.39326  0.34798  0.06111  1.0000
  H   H13       1.0  0.29146  0.95815  0.59179  1.0000
  H   H14       1.0  0.79146  0.59179  0.95815  1.0000
  H   H15       1.0  0.30045  0.04179  0.72843  1.0000
  H   H16       1.0  0.80045  0.72843  0.04179  1.0000
  H   H17       1.0  0.25902  0.10803  0.58746  1.0000
  H   H18       1.0  0.75902  0.58746  0.10803  1.0000
  H   H19       1.0  0.97109  0.80816  0.87829  1.0000
  H   H20       1.0  0.47109  0.87829  0.80816  1.0000
  H   H21       1.0  0.17333  0.92963  0.90859  1.0000
  H   H22       1.0  0.67333  0.90859  0.92963  1.0000
  H   H23       1.0  0.04765  0.92620  0.00929  1.0000
  H   H24       1.0  0.54765  0.00929  0.92619  1.0000
  H   H25       1.0  0.02106  0.71395  0.44236  1.0000
  H   H26       1.0  0.52106  0.44236  0.71395  1.0000
  H   H27       1.0  0.02996  0.61030  0.32331  1.0000
  H   H28       1.0  0.52996  0.32331  0.61030  1.0000
  H   H29       1.0  0.08185  0.76979  0.31071  1.0000
  H   H30       1.0  0.58185  0.31071  0.76979  1.0000
  H   H31       1.0  0.95178  0.30166  0.19369  1.0000
  H   H32       1.0  0.45177  0.19369  0.30166  1.0000
  H   H33       1.0  0.83456  0.25405  0.02905  1.0000
  H   H34       1.0  0.33455  0.02904  0.25405  1.0000
  H   H35       1.0  0.79199  0.36858  0.11360  1.0000
  H   H36       1.0  0.29198  0.11359  0.36858  1.0000
  H   H37       1.0  0.59839  0.68918  0.75927  1.0000
  H   H38       1.0  0.09839  0.75927  0.68918  1.0000
  H   H39       1.0  0.74776  0.65680  0.72260  1.0000
  H   H40       1.0  0.24776  0.72260  0.65680  1.0000
  C   C1        1.0  0.75094  0.45303  0.41546  1.0000
  C   C2        1.0  0.25094  0.41546  0.45303  1.0000
  C   C3        1.0  0.88304  0.99740  0.27003  1.0000
  C   C4        1.0  0.38303  0.27003  0.99740  1.0000
  C   C5        1.0  0.04035  0.95901  0.60259  1.0000
  C   C6        1.0  0.54035  0.60259  0.95901  1.0000
  C   C7        1.0  0.18709  0.79413  0.03262  1.0000
  C   C8        1.0  0.68708  0.03262  0.79412  1.0000
  C   C9        1.0  0.72446  0.88252  0.24524  1.0000
  C   C10       1.0  0.22445  0.24524  0.88252  1.0000
  C   C11       1.0  0.03543  0.43444  0.07503  1.0000
  C   C12       1.0  0.53543  0.07503  0.43444  1.0000
  C   C13       1.0  0.23501  0.02087  0.62742  1.0000
  C   C14       1.0  0.73501  0.62743  0.02087  1.0000
  C   C15       1.0  0.66458  0.55269  0.39444  1.0000
  C   C16       1.0  0.16458  0.39444  0.55269  1.0000
  C   C17       1.0  0.08728  0.86796  0.95305  1.0000
  C   C18       1.0  0.58727  0.95305  0.86796  1.0000
  C   C19       1.0  0.28325  0.72473  0.44275  1.0000
  C   C20       1.0  0.78325  0.44275  0.72473  1.0000
  C   C21       1.0  0.09065  0.70278  0.37787  1.0000
  C   C22       1.0  0.59065  0.37787  0.70278  1.0000
  C   C23       1.0  0.89553  0.33170  0.10450  1.0000
  C   C24       1.0  0.39553  0.10449  0.33170  1.0000
  O   O1        1.0  0.37890  0.70418  0.38036  1.0000
  O   O2        1.0  0.87889  0.38037  0.70419  1.0000
  O   O3        1.0  0.93081  0.01869  0.56277  1.0000
  O   O4        1.0  0.43081  0.56278  0.01869  1.0000
  O   O5        1.0  0.69197  0.82651  0.33606  1.0000
  O   O6        1.0  0.19196  0.33606  0.82651  1.0000
  O   O7        1.0  0.21751  0.70362  0.98254  1.0000
  O   O8        1.0  0.71750  0.98254  0.70362  1.0000
  O   O9        1.0  0.97869  0.84646  0.61909  1.0000
  O   O10       1.0  0.47869  0.61909  0.84646  1.0000
  O   O11       1.0  0.15337  0.51296  0.16588  1.0000
  O   O12       1.0  0.65337  0.16588  0.51296  1.0000
  O   O13       1.0  0.24692  0.82122  0.15025  1.0000
  O   O14       1.0  0.74690  0.15025  0.82122  1.0000
  O   O15       1.0  0.56522  0.55188  0.28396  1.0000
  O   O16       1.0  0.06522  0.28396  0.55188  1.0000
  O   O17       1.0  0.02738  0.43849  0.96286  1.0000
  O   O18       1.0  0.52737  0.96286  0.43849  1.0000
  O   O19       1.0  0.35941  0.76746  0.55718  1.0000
  O   O20       1.0  0.85942  0.55718  0.76746  1.0000
  O   O21       1.0  0.69287  0.62993  0.48692  1.0000
  O   O22       1.0  0.19287  0.48692  0.62994  1.0000
  O   O23       1.0  0.62343  0.83810  0.13463  1.0000
  O   O24       1.0  0.12342  0.13464  0.83810  1.0000
  O   O25       1.0  0.68314  0.71825  0.71266  1.0000
  O   O26       1.0  0.18314  0.71266  0.71825  1.0000
