data_image0
_chemical_formula_structural       La2Ni2H32C24N6O24
_chemical_formula_sum              "La2 Ni2 H32 C24 N6 O24"
_cell_length_a       8.54901
_cell_length_b       9.77707
_cell_length_c       12.8571
_cell_angle_alpha    67.6517
_cell_angle_beta     81.0018
_cell_angle_gamma    65.731

_space_group_name_H-M_alt    "P 1"
_space_group_IT_number       1

loop_
  _space_group_symop_operation_xyz
  'x, y, z'

loop_
  _atom_site_type_symbol
  _atom_site_label
  _atom_site_symmetry_multiplicity
  _atom_site_fract_x
  _atom_site_fract_y
  _atom_site_fract_z
  _atom_site_occupancy
  La  La1       1.0  0.75004  0.00606  0.98780  1.0000
  La  La2       1.0  0.24997  0.99394  0.01220  1.0000
  Ni  Ni1       1.0  0.25002  0.83696  0.32594  1.0000
  Ni  Ni2       1.0  0.74998  0.16304  0.67405  1.0000
  H   H1        1.0  0.41276  0.80322  0.49832  1.0000
  H   H2        1.0  0.08722  0.69837  0.49838  1.0000
  H   H3        1.0  0.58724  0.19678  0.50168  1.0000
  H   H4        1.0  0.91278  0.30163  0.50162  1.0000
  H   H5        1.0  0.64533  0.41268  0.25377  1.0000
  H   H6        1.0  0.85461  0.33359  0.25368  1.0000
  H   H7        1.0  0.35467  0.58732  0.74623  1.0000
  H   H8        1.0  0.14539  0.66641  0.74632  1.0000
  H   H9        1.0  0.54526  0.01478  0.37537  1.0000
  H   H10       1.0  0.95479  0.60979  0.37537  1.0000
  H   H11       1.0  0.45474  0.98522  0.62463  1.0000
  H   H12       1.0  0.04521  0.39021  0.62463  1.0000
  H   H13       1.0  0.62374  0.81624  0.37461  1.0000
  H   H14       1.0  0.87625  0.80905  0.37474  1.0000
  H   H15       1.0  0.37627  0.18376  0.62539  1.0000
  H   H16       1.0  0.12375  0.19095  0.62526  1.0000
  H   H17       1.0  0.19532  0.99727  0.53684  1.0000
  H   H18       1.0  0.30454  0.46570  0.53689  1.0000
  H   H19       1.0  0.80468  0.00273  0.46317  1.0000
  H   H20       1.0  0.69546  0.53430  0.46311  1.0000
  H   H21       1.0  0.29047  0.12734  0.43896  1.0000
  H   H22       1.0  0.20947  0.43363  0.43897  1.0000
  H   H23       1.0  0.70953  0.87266  0.56104  1.0000
  H   H24       1.0  0.79053  0.56637  0.56103  1.0000
  H   H25       1.0  0.85388  0.54730  0.06315  1.0000
  H   H26       1.0  0.64588  0.38960  0.06320  1.0000
  H   H27       1.0  0.14612  0.45270  0.93685  1.0000
  H   H28       1.0  0.35412  0.61040  0.93681  1.0000
  H   H29       1.0  0.80861  0.59556  0.18612  1.0000
  H   H30       1.0  0.69120  0.21834  0.18617  1.0000
  H   H31       1.0  0.19140  0.40444  0.81388  1.0000
  H   H32       1.0  0.30880  0.78166  0.81383  1.0000
  C   C1        1.0  0.48402  0.99056  0.22945  1.0000
  C   C2        1.0  0.01586  0.78000  0.22948  1.0000
  C   C3        1.0  0.51598  0.00944  0.77055  1.0000
  C   C4        1.0  0.98414  0.22000  0.77052  1.0000
  C   C5        1.0  0.51125  0.92977  0.35613  1.0000
  C   C6        1.0  0.98868  0.71408  0.35616  1.0000
  C   C7        1.0  0.48875  0.07023  0.64387  1.0000
  C   C8        1.0  0.01132  0.28592  0.64384  1.0000
  C   C9        1.0  0.23774  0.03746  0.44897  1.0000
  C   C10       1.0  0.26220  0.51349  0.44901  1.0000
  C   C11       1.0  0.76226  0.96254  0.55103  1.0000
  C   C12       1.0  0.73780  0.48651  0.55099  1.0000
  C   C13       1.0  0.07589  0.11921  0.37730  1.0000
  C   C14       1.0  0.42404  0.50335  0.37737  1.0000
  C   C15       1.0  0.92411  0.88079  0.62270  1.0000
  C   C16       1.0  0.57596  0.49665  0.62263  1.0000
  C   C17       1.0  0.58973  0.69072  0.08314  1.0000
  C   C18       1.0  0.91008  0.22619  0.08311  1.0000
  C   C19       1.0  0.41027  0.30928  0.91686  1.0000
  C   C20       1.0  0.08992  0.77381  0.91689  1.0000
  C   C21       1.0  0.76001  0.55883  0.13137  1.0000
  C   C22       1.0  0.73975  0.30983  0.13138  1.0000
  C   C23       1.0  0.23999  0.44117  0.86863  1.0000
  C   C24       1.0  0.26025  0.69017  0.86862  1.0000
  N   N1        1.0  0.36683  0.89812  0.42415  1.0000
  N   N2        1.0  0.13315  0.67767  0.42418  1.0000
  N   N3        1.0  0.63317  0.10188  0.57585  1.0000
  N   N4        1.0  0.86686  0.32233  0.57582  1.0000
  N   N5        1.0  0.74992  0.40143  0.19714  1.0000
  N   N6        1.0  0.25008  0.59857  0.80286  1.0000
  O   O1        1.0  0.58779  0.04620  0.16644  1.0000
  O   O2        1.0  0.91208  0.78741  0.16646  1.0000
  O   O3        1.0  0.41221  0.95380  0.83356  1.0000
  O   O4        1.0  0.08792  0.21259  0.83354  1.0000
  O   O5        1.0  0.35995  0.97388  0.19779  1.0000
  O   O6        1.0  0.13993  0.82834  0.19780  1.0000
  O   O7        1.0  0.64005  0.02612  0.80221  1.0000
  O   O8        1.0  0.86007  0.17166  0.80220  1.0000
  O   O9        1.0  0.04268  0.03905  0.33172  1.0000
  O   O10       1.0  0.45732  0.62905  0.33169  1.0000
  O   O11       1.0  0.95732  0.96095  0.66828  1.0000
  O   O12       1.0  0.54268  0.37095  0.66831  1.0000
  O   O13       1.0  0.97946  0.26138  0.37067  1.0000
  O   O14       1.0  0.52044  0.36775  0.37083  1.0000
  O   O15       1.0  0.02054  0.73862  0.62933  1.0000
  O   O16       1.0  0.47956  0.63225  0.62917  1.0000
  O   O17       1.0  0.58893  0.83327  0.04742  1.0000
  O   O18       1.0  0.91092  0.11933  0.04742  1.0000
  O   O19       1.0  0.41107  0.16673  0.95258  1.0000
  O   O20       1.0  0.08907  0.88067  0.95258  1.0000
  O   O21       1.0  0.45901  0.66519  0.07894  1.0000
  O   O22       1.0  0.04082  0.25590  0.07887  1.0000
  O   O23       1.0  0.54099  0.33481  0.92106  1.0000
  O   O24       1.0  0.95918  0.74410  0.92113  1.0000
