data_image0
_chemical_formula_structural       Na4H24C24S4Br4N4Cl8O14
_chemical_formula_sum              "Na4 H24 C24 S4 Br4 N4 Cl8 O14"
_cell_length_a       6.39069
_cell_length_b       6.39121
_cell_length_c       30.2757
_cell_angle_alpha    93.5034
_cell_angle_beta     93.1791
_cell_angle_gamma    116.75

_space_group_name_H-M_alt    "P 1"
_space_group_IT_number       1

loop_
  _space_group_symop_operation_xyz
  'x, y, z'

loop_
  _atom_site_type_symbol
  _atom_site_label
  _atom_site_symmetry_multiplicity
  _atom_site_fract_x
  _atom_site_fract_y
  _atom_site_fract_z
  _atom_site_occupancy
  Na  Na1       1.0  0.60560  0.65480  0.23567  1.0000
  Na  Na2       1.0  0.91874  0.37068  0.26438  1.0000
  Na  Na3       1.0  0.39440  0.34521  0.76433  1.0000
  Na  Na4       1.0  0.08126  0.62933  0.73562  1.0000
  H   H1        1.0  0.58434  0.43745  0.02779  1.0000
  H   H2        1.0  0.90986  0.55668  0.47231  1.0000
  H   H3        1.0  0.41565  0.56252  0.97221  1.0000
  H   H4        1.0  0.09013  0.44332  0.52770  1.0000
  H   H5        1.0  0.89950  0.96963  0.04143  1.0000
  H   H6        1.0  0.42868  0.85859  0.45878  1.0000
  H   H7        1.0  0.10047  0.03033  0.95857  1.0000
  H   H8        1.0  0.57133  0.14142  0.54122  1.0000
  H   H9        1.0  0.77788  0.91544  0.11810  1.0000
  H   H10       1.0  0.29761  0.66049  0.38206  1.0000
  H   H11       1.0  0.22210  0.08454  0.88190  1.0000
  H   H12       1.0  0.70239  0.33952  0.61794  1.0000
  H   H13       1.0  0.13788  0.89741  0.27565  1.0000
  H   H14       1.0  0.12082  0.86246  0.22430  1.0000
  H   H15       1.0  0.86213  0.10260  0.72435  1.0000
  H   H16       1.0  0.87917  0.13754  0.77570  1.0000
  H   H17       1.0  0.14444  0.46223  0.18631  1.0000
  H   H18       1.0  0.77575  0.95897  0.31367  1.0000
  H   H19       1.0  0.85556  0.53777  0.81369  1.0000
  H   H20       1.0  0.22425  0.04104  0.68633  1.0000
  H   H21       1.0  0.19120  0.24730  0.19474  1.0000
  H   H22       1.0  0.55248  0.99759  0.30528  1.0000
  H   H23       1.0  0.80881  0.75270  0.80526  1.0000
  H   H24       1.0  0.44753  0.00242  0.69472  1.0000
  C   C1        1.0  0.61125  0.14080  0.11627  1.0000
  C   C2        1.0  0.52469  0.49562  0.38382  1.0000
  C   C3        1.0  0.38875  0.85919  0.88372  1.0000
  C   C4        1.0  0.47532  0.50440  0.61618  1.0000
  C   C5        1.0  0.55649  0.28814  0.09036  1.0000
  C   C6        1.0  0.69801  0.46662  0.40972  1.0000
  C   C7        1.0  0.44351  0.71184  0.90964  1.0000
  C   C8        1.0  0.30200  0.53338  0.59028  1.0000
  C   C9        1.0  0.62669  0.32205  0.04738  1.0000
  C   C10       1.0  0.77499  0.57963  0.45272  1.0000
  C   C11       1.0  0.37330  0.67793  0.95262  1.0000
  C   C12       1.0  0.22500  0.42037  0.54728  1.0000
  C   C13       1.0  0.74662  0.20458  0.02986  1.0000
  C   C14       1.0  0.67516  0.71712  0.47029  1.0000
  C   C15       1.0  0.25336  0.79541  0.97014  1.0000
  C   C16       1.0  0.32484  0.28290  0.52972  1.0000
  C   C17       1.0  0.80373  0.05896  0.05505  1.0000
  C   C18       1.0  0.50428  0.74915  0.44511  1.0000
  C   C19       1.0  0.19626  0.94101  0.94494  1.0000
  C   C20       1.0  0.49572  0.25087  0.55489  1.0000
  C   C21       1.0  0.73576  0.02923  0.09802  1.0000
  C   C22       1.0  0.43148  0.63836  0.40213  1.0000
  C   C23       1.0  0.26423  0.97075  0.90198  1.0000
  C   C24       1.0  0.56853  0.36166  0.59787  1.0000
  S   S1        1.0  0.52995  0.08568  0.17190  1.0000
  S   S2        1.0  0.41388  0.35902  0.32816  1.0000
  S   S3        1.0  0.47006  0.91432  0.82810  1.0000
  S   S4        1.0  0.58612  0.64100  0.67184  1.0000
  Br  Br1       1.0  0.07104  0.71883  0.13565  1.0000
  Br  Br2       1.0  0.08313  0.93552  0.36414  1.0000
  Br  Br3       1.0  0.92897  0.28117  0.86435  1.0000
  Br  Br4       1.0  0.91687  0.06448  0.63586  1.0000
  N   N1        1.0  0.25474  0.00446  0.17318  1.0000
  N   N2        1.0  0.33152  0.08255  0.32675  1.0000
  N   N3        1.0  0.74527  0.99555  0.82682  1.0000
  N   N4        1.0  0.66849  0.91747  0.67325  1.0000
  Cl  Cl1       1.0  0.40073  0.43068  0.10912  1.0000
  Cl  Cl2       1.0  0.82159  0.29197  0.39092  1.0000
  Cl  Cl3       1.0  0.59927  0.56931  0.89088  1.0000
  Cl  Cl4       1.0  0.17840  0.70804  0.60909  1.0000
  Cl  Cl5       1.0  0.81772  0.23551  0.97563  1.0000
  Cl  Cl6       1.0  0.76043  0.84222  0.52454  1.0000
  Cl  Cl7       1.0  0.18228  0.76447  0.02437  1.0000
  Cl  Cl8       1.0  0.23957  0.15778  0.47546  1.0000
  O   O1        1.0  0.64058  0.31082  0.19969  1.0000
  O   O2        1.0  0.61129  0.44219  0.30040  1.0000
  O   O3        1.0  0.35943  0.68919  0.80031  1.0000
  O   O4        1.0  0.38872  0.55782  0.69960  1.0000
  O   O5        1.0  0.60845  0.91265  0.18347  1.0000
  O   O6        1.0  0.22919  0.42591  0.31663  1.0000
  O   O7        1.0  0.39157  0.08736  0.81653  1.0000
  O   O8        1.0  0.77082  0.57410  0.68337  1.0000
  O   O9        1.0  0.03684  0.78747  0.25000  1.0000
  O   O10       1.0  0.96316  0.21253  0.75000  1.0000
  O   O11       1.0  0.18694  0.38719  0.21008  1.0000
  O   O12       1.0  0.67691  0.97783  0.28992  1.0000
  O   O13       1.0  0.81306  0.61280  0.78992  1.0000
  O   O14       1.0  0.32309  0.02218  0.71008  1.0000
