data_image0
_chemical_formula_structural       K2Ag2H48C24Cl4O12
_chemical_formula_sum              "K2 Ag2 H48 C24 Cl4 O12"
_cell_length_a       7.8853
_cell_length_b       8.67082
_cell_length_c       13.7446
_cell_angle_alpha    102.82
_cell_angle_beta     89.9999
_cell_angle_gamma    90.0001

_space_group_name_H-M_alt    "P 1"
_space_group_IT_number       1

loop_
  _space_group_symop_operation_xyz
  'x, y, z'

loop_
  _atom_site_type_symbol
  _atom_site_label
  _atom_site_symmetry_multiplicity
  _atom_site_fract_x
  _atom_site_fract_y
  _atom_site_fract_z
  _atom_site_occupancy
  K   K1        1.0  0.50000  0.50000  0.50000  1.0000
  K   K2        1.0  0.00000  1.00000  0.00000  1.0000
  Ag  Ag1       1.0  1.00000  0.50000  0.50000  1.0000
  Ag  Ag2       1.0  0.50000  0.00000  1.00000  1.0000
  H   H1        1.0  0.69633  0.54078  0.75202  1.0000
  H   H2        1.0  0.19633  0.95921  0.74798  1.0000
  H   H3        1.0  0.30367  0.45922  0.24798  1.0000
  H   H4        1.0  0.80367  0.04078  0.25202  1.0000
  H   H5        1.0  0.54189  0.60145  0.84869  1.0000
  H   H6        1.0  0.04189  0.89855  0.65131  1.0000
  H   H7        1.0  0.45811  0.39856  0.15131  1.0000
  H   H8        1.0  0.95811  0.10145  0.34869  1.0000
  H   H9        1.0  0.41321  0.33434  0.79682  1.0000
  H   H10       1.0  0.91321  0.16566  0.70318  1.0000
  H   H11       1.0  0.58679  0.66566  0.20318  1.0000
  H   H12       1.0  0.08679  0.83434  0.29682  1.0000
  H   H13       1.0  0.57507  0.28837  0.70312  1.0000
  H   H14       1.0  0.07507  0.21162  0.79688  1.0000
  H   H15       1.0  0.42493  0.71163  0.29688  1.0000
  H   H16       1.0  0.92493  0.78837  0.20312  1.0000
  H   H17       1.0  0.30331  0.12756  0.66784  1.0000
  H   H18       1.0  0.80331  0.37244  0.83216  1.0000
  H   H19       1.0  0.69669  0.87244  0.33216  1.0000
  H   H20       1.0  0.19669  0.62756  0.16783  1.0000
  H   H21       1.0  0.19740  0.30207  0.65145  1.0000
  H   H22       1.0  0.69740  0.19793  0.84856  1.0000
  H   H23       1.0  0.80261  0.69793  0.34856  1.0000
  H   H24       1.0  0.30261  0.80207  0.15144  1.0000
  H   H25       1.0  0.15844  0.16481  0.47681  1.0000
  H   H26       1.0  0.65844  0.33519  0.02319  1.0000
  H   H27       1.0  0.84155  0.83519  0.52319  1.0000
  H   H28       1.0  0.34155  0.66481  0.97681  1.0000
  H   H29       1.0  0.27928  0.99815  0.49451  1.0000
  H   H30       1.0  0.77928  0.50185  0.00550  1.0000
  H   H31       1.0  0.72072  0.00185  0.50549  1.0000
  H   H32       1.0  0.22072  0.49815  0.99451  1.0000
  H   H33       1.0  0.50390  0.06235  0.37952  1.0000
  H   H34       1.0  0.00390  0.43765  0.12048  1.0000
  H   H35       1.0  0.49610  0.93765  0.62048  1.0000
  H   H36       1.0  0.99610  0.56234  0.87952  1.0000
  H   H37       1.0  0.30260  0.01092  0.32062  1.0000
  H   H38       1.0  0.80260  0.48908  0.17938  1.0000
  H   H39       1.0  0.69740  0.98908  0.67938  1.0000
  H   H40       1.0  0.19740  0.51092  0.82062  1.0000
  H   H41       1.0  0.64806  0.83672  0.80532  1.0000
  H   H42       1.0  0.14805  0.66328  0.69468  1.0000
  H   H43       1.0  0.35194  0.16328  0.19468  1.0000
  H   H44       1.0  0.85194  0.33672  0.30532  1.0000
  H   H45       1.0  0.43840  0.80622  0.75514  1.0000
  H   H46       1.0  0.93839  0.69378  0.74486  1.0000
  H   H47       1.0  0.56161  0.19378  0.24486  1.0000
  H   H48       1.0  0.06160  0.30622  0.25514  1.0000
  C   C1        1.0  0.56941  0.59424  0.76899  1.0000
  C   C2        1.0  0.06941  0.90576  0.73101  1.0000
  C   C3        1.0  0.43059  0.40576  0.23101  1.0000
  C   C4        1.0  0.93059  0.09424  0.26899  1.0000
  C   C5        1.0  0.44692  0.33914  0.71940  1.0000
  C   C6        1.0  0.94692  0.16086  0.78060  1.0000
  C   C7        1.0  0.55308  0.66086  0.28060  1.0000
  C   C8        1.0  0.05308  0.83914  0.21940  1.0000
  C   C9        1.0  0.32240  0.24279  0.64757  1.0000
  C   C10       1.0  0.82240  0.25721  0.85243  1.0000
  C   C11       1.0  0.67760  0.75721  0.35243  1.0000
  C   C12       1.0  0.17760  0.74279  0.14757  1.0000
  C   C13       1.0  0.28819  0.11620  0.47687  1.0000
  C   C14       1.0  0.78819  0.38380  0.02312  1.0000
  C   C15       1.0  0.71181  0.88381  0.52313  1.0000
  C   C16       1.0  0.21181  0.61620  0.97687  1.0000
  C   C17       1.0  0.37066  0.10070  0.37634  1.0000
  C   C18       1.0  0.87066  0.39931  0.12366  1.0000
  C   C19       1.0  0.62934  0.89931  0.62366  1.0000
  C   C20       1.0  0.12933  0.60069  0.87634  1.0000
  C   C21       1.0  0.56868  0.75803  0.74897  1.0000
  C   C22       1.0  0.06867  0.74196  0.75103  1.0000
  C   C23       1.0  0.43132  0.24196  0.25103  1.0000
  C   C24       1.0  0.93132  0.25803  0.24897  1.0000
  Cl  Cl1       1.0  0.83120  0.30784  0.54512  1.0000
  Cl  Cl2       1.0  0.33120  0.19217  0.95488  1.0000
  Cl  Cl3       1.0  0.16880  0.69217  0.45488  1.0000
  Cl  Cl4       1.0  0.66880  0.80784  0.04512  1.0000
  O   O1        1.0  0.44593  0.49882  0.70678  1.0000
  O   O2        1.0  0.94592  0.00117  0.79322  1.0000
  O   O3        1.0  0.55408  0.50118  0.29322  1.0000
  O   O4        1.0  0.05408  0.99883  0.20678  1.0000
  O   O5        1.0  0.39033  0.21961  0.54933  1.0000
  O   O6        1.0  0.89033  0.28039  0.95067  1.0000
  O   O7        1.0  0.60967  0.78039  0.45066  1.0000
  O   O8        1.0  0.10967  0.71961  0.04933  1.0000
  O   O9        1.0  0.36479  0.25028  0.34887  1.0000
  O   O10       1.0  0.86479  0.24972  0.15113  1.0000
  O   O11       1.0  0.63521  0.74972  0.65113  1.0000
  O   O12       1.0  0.13520  0.75027  0.84887  1.0000
