data_image0
_chemical_formula_structural       Cd4H28C40S8N20
_chemical_formula_sum              "Cd4 H28 C40 S8 N20"
_cell_length_a       8.47805
_cell_length_b       9.26223
_cell_length_c       16.2615
_cell_angle_alpha    90
_cell_angle_beta     97.5452
_cell_angle_gamma    90.0003

_space_group_name_H-M_alt    "P 1"
_space_group_IT_number       1

loop_
  _space_group_symop_operation_xyz
  'x, y, z'

loop_
  _atom_site_type_symbol
  _atom_site_label
  _atom_site_symmetry_multiplicity
  _atom_site_fract_x
  _atom_site_fract_y
  _atom_site_fract_z
  _atom_site_occupancy
  Cd  Cd1       1.0  0.98987  0.19982  0.63043  1.0000
  Cd  Cd2       1.0  0.01013  0.69981  0.86958  1.0000
  Cd  Cd3       1.0  0.01013  0.80018  0.36957  1.0000
  Cd  Cd4       1.0  0.98987  0.30019  0.13042  1.0000
  H   H1        1.0  0.44896  0.89450  0.80644  1.0000
  H   H2        1.0  0.55104  0.39450  0.69356  1.0000
  H   H3        1.0  0.55104  0.10550  0.19356  1.0000
  H   H4        1.0  0.44896  0.60550  0.30644  1.0000
  H   H5        1.0  0.27317  0.33658  0.79714  1.0000
  H   H6        1.0  0.72684  0.83658  0.70286  1.0000
  H   H7        1.0  0.72683  0.66342  0.20286  1.0000
  H   H8        1.0  0.27317  0.16341  0.29714  1.0000
  H   H9        1.0  0.47870  0.40123  0.90057  1.0000
  H   H10       1.0  0.52130  0.90123  0.59943  1.0000
  H   H11       1.0  0.52130  0.59877  0.09943  1.0000
  H   H12       1.0  0.47870  0.09877  0.40057  1.0000
  H   H13       1.0  0.68942  0.45903  0.01596  1.0000
  H   H14       1.0  0.31059  0.95903  0.48404  1.0000
  H   H15       1.0  0.31058  0.54097  0.98404  1.0000
  H   H16       1.0  0.68941  0.04097  0.51596  1.0000
  H   H17       1.0  0.83438  0.03122  0.03889  1.0000
  H   H18       1.0  0.16562  0.53122  0.46111  1.0000
  H   H19       1.0  0.16562  0.96878  0.96112  1.0000
  H   H20       1.0  0.83437  0.46878  0.53889  1.0000
  H   H21       1.0  0.62886  0.95496  0.92510  1.0000
  H   H22       1.0  0.37114  0.45496  0.57490  1.0000
  H   H23       1.0  0.37114  0.04504  0.07491  1.0000
  H   H24       1.0  0.62885  0.54504  0.42510  1.0000
  H   H25       1.0  0.20944  0.93765  0.69376  1.0000
  H   H26       1.0  0.79056  0.43765  0.80624  1.0000
  H   H27       1.0  0.79057  0.06235  0.30624  1.0000
  H   H28       1.0  0.20944  0.56234  0.19376  1.0000
  C   C1        1.0  0.38923  0.99734  0.79458  1.0000
  C   C2        1.0  0.61077  0.49734  0.70542  1.0000
  C   C3        1.0  0.61077  0.00266  0.20543  1.0000
  C   C4        1.0  0.38923  0.50266  0.29458  1.0000
  C   C5        1.0  0.41426  0.13258  0.83292  1.0000
  C   C6        1.0  0.58575  0.63258  0.66708  1.0000
  C   C7        1.0  0.58574  0.86742  0.16708  1.0000
  C   C8        1.0  0.41425  0.36742  0.33292  1.0000
  C   C9        1.0  0.29845  0.22316  0.78832  1.0000
  C   C10       1.0  0.70156  0.72316  0.71168  1.0000
  C   C11       1.0  0.70155  0.77684  0.21168  1.0000
  C   C12       1.0  0.29845  0.27684  0.28832  1.0000
  C   C13       1.0  0.53408  0.17149  0.90166  1.0000
  C   C14       1.0  0.46592  0.67148  0.59833  1.0000
  C   C15       1.0  0.46591  0.82851  0.09834  1.0000
  C   C16       1.0  0.53408  0.32851  0.40167  1.0000
  C   C17       1.0  0.55359  0.31490  0.92968  1.0000
  C   C18       1.0  0.44641  0.81490  0.57032  1.0000
  C   C19       1.0  0.44641  0.68510  0.07032  1.0000
  C   C20       1.0  0.55359  0.18510  0.42968  1.0000
  C   C21       1.0  0.67130  0.34801  0.99452  1.0000
  C   C22       1.0  0.32871  0.84801  0.50547  1.0000
  C   C23       1.0  0.32871  0.65199  0.00548  1.0000
  C   C24       1.0  0.67129  0.15198  0.49452  1.0000
  C   C25       1.0  0.75226  0.10976  0.00689  1.0000
  C   C26       1.0  0.24775  0.60976  0.49311  1.0000
  C   C27       1.0  0.24774  0.89024  0.99311  1.0000
  C   C28       1.0  0.75225  0.39024  0.50690  1.0000
  C   C29       1.0  0.63695  0.06817  0.94289  1.0000
  C   C30       1.0  0.36306  0.56817  0.55710  1.0000
  C   C31       1.0  0.36305  0.93183  0.05711  1.0000
  C   C32       1.0  0.63695  0.43183  0.44290  1.0000
  C   C33       1.0  0.93154  0.86852  0.56108  1.0000
  C   C34       1.0  0.06846  0.36853  0.93891  1.0000
  C   C35       1.0  0.06846  0.13148  0.43892  1.0000
  C   C36       1.0  0.93154  0.63147  0.06109  1.0000
  C   C37       1.0  0.11151  0.52754  0.70315  1.0000
  C   C38       1.0  0.88850  0.02753  0.79686  1.0000
  C   C39       1.0  0.88849  0.47245  0.29685  1.0000
  C   C40       1.0  0.11150  0.97247  0.20314  1.0000
  S   S1        1.0  0.82431  0.76398  0.49587  1.0000
  S   S2        1.0  0.17569  0.26399  0.00413  1.0000
  S   S3        1.0  0.17569  0.23602  0.50413  1.0000
  S   S4        1.0  0.82431  0.73601  0.99587  1.0000
  S   S5        1.0  0.22144  0.64282  0.76105  1.0000
  S   S6        1.0  0.77857  0.14282  0.73896  1.0000
  S   S7        1.0  0.77855  0.35717  0.23895  1.0000
  S   S8        1.0  0.22143  0.85719  0.26104  1.0000
  N   N1        1.0  0.21172  0.14894  0.72801  1.0000
  N   N2        1.0  0.78828  0.64894  0.77199  1.0000
  N   N3        1.0  0.78828  0.85106  0.27199  1.0000
  N   N4        1.0  0.21172  0.35106  0.22801  1.0000
  N   N5        1.0  0.26878  0.01283  0.73277  1.0000
  N   N6        1.0  0.73122  0.51284  0.76723  1.0000
  N   N7        1.0  0.73122  0.98716  0.26723  1.0000
  N   N8        1.0  0.26878  0.48717  0.23277  1.0000
  N   N9        1.0  0.76990  0.24758  0.03286  1.0000
  N   N10       1.0  0.23010  0.74758  0.46713  1.0000
  N   N11       1.0  0.23010  0.75242  0.96714  1.0000
  N   N12       1.0  0.76989  0.25242  0.53287  1.0000
  N   N13       1.0  0.00906  0.94562  0.60888  1.0000
  N   N14       1.0  0.99094  0.44562  0.89112  1.0000
  N   N15       1.0  0.99094  0.05438  0.39112  1.0000
  N   N16       1.0  0.00906  0.55438  0.10887  1.0000
  N   N17       1.0  0.03327  0.44219  0.66178  1.0000
  N   N18       1.0  0.96674  0.94218  0.83822  1.0000
  N   N19       1.0  0.96672  0.55781  0.33822  1.0000
  N   N20       1.0  0.03326  0.05782  0.16178  1.0000
