data_image0
_chemical_formula_structural       Ni2H16C24N4O8
_chemical_formula_sum              "Ni2 H16 C24 N4 O8"
_cell_length_a       6.12896
_cell_length_b       11.1463
_cell_length_c       12.2039
_cell_angle_alpha    90.0002
_cell_angle_beta     89.9987
_cell_angle_gamma    89.9999

_space_group_name_H-M_alt    "P 1"
_space_group_IT_number       1

loop_
  _space_group_symop_operation_xyz
  'x, y, z'

loop_
  _atom_site_type_symbol
  _atom_site_label
  _atom_site_symmetry_multiplicity
  _atom_site_fract_x
  _atom_site_fract_y
  _atom_site_fract_z
  _atom_site_occupancy
  Ni  Ni1       1.0  0.00001  0.96200  0.50000  1.0000
  Ni  Ni2       1.0  0.50000  0.46199  0.00000  1.0000
  H   H1        1.0  0.03246  0.32982  0.74584  1.0000
  H   H2        1.0  0.96754  0.32982  0.25417  1.0000
  H   H3        1.0  0.46756  0.82984  0.24583  1.0000
  H   H4        1.0  0.53245  0.82983  0.75415  1.0000
  H   H5        1.0  0.15975  0.18348  0.60301  1.0000
  H   H6        1.0  0.84027  0.18347  0.39699  1.0000
  H   H7        1.0  0.34025  0.68349  0.10301  1.0000
  H   H8        1.0  0.65975  0.68349  0.89699  1.0000
  H   H9        1.0  0.57736  0.99372  0.61727  1.0000
  H   H10       1.0  0.42266  0.99373  0.38273  1.0000
  H   H11       1.0  0.92264  0.49372  0.11728  1.0000
  H   H12       1.0  0.07736  0.49372  0.88273  1.0000
  H   H13       1.0  0.42583  0.13435  0.75882  1.0000
  H   H14       1.0  0.57417  0.13436  0.24118  1.0000
  H   H15       1.0  0.07415  0.63435  0.25884  1.0000
  H   H16       1.0  0.92583  0.63435  0.74118  1.0000
  C   C1        1.0  0.62928  0.32892  0.84582  1.0000
  C   C2        1.0  0.37069  0.32893  0.15417  1.0000
  C   C3        1.0  0.87071  0.82894  0.34583  1.0000
  C   C4        1.0  0.12930  0.82893  0.65416  1.0000
  C   C5        1.0  0.71612  0.24417  0.76127  1.0000
  C   C6        1.0  0.28388  0.24418  0.23873  1.0000
  C   C7        1.0  0.78387  0.74416  0.26128  1.0000
  C   C8        1.0  0.21613  0.74416  0.73872  1.0000
  C   C9        1.0  0.92607  0.25782  0.71797  1.0000
  C   C10       1.0  0.07393  0.25783  0.28203  1.0000
  C   C11       1.0  0.57392  0.75783  0.21798  1.0000
  C   C12       1.0  0.42609  0.75783  0.78202  1.0000
  C   C13       1.0  0.99786  0.17661  0.63956  1.0000
  C   C14       1.0  0.00214  0.17662  0.36045  1.0000
  C   C15       1.0  0.50214  0.67662  0.13956  1.0000
  C   C16       1.0  0.49785  0.67662  0.86045  1.0000
  C   C17       1.0  0.67205  0.07009  0.64657  1.0000
  C   C18       1.0  0.32798  0.07009  0.35343  1.0000
  C   C19       1.0  0.82796  0.57008  0.14658  1.0000
  C   C20       1.0  0.17203  0.57009  0.85342  1.0000
  C   C21       1.0  0.58832  0.14813  0.72490  1.0000
  C   C22       1.0  0.41169  0.14815  0.27511  1.0000
  C   C23       1.0  0.91167  0.64814  0.22490  1.0000
  C   C24       1.0  0.08831  0.64815  0.77510  1.0000
  N   N1        1.0  0.87356  0.08457  0.60419  1.0000
  N   N2        1.0  0.12645  0.08458  0.39581  1.0000
  N   N3        1.0  0.62643  0.58457  0.10419  1.0000
  N   N4        1.0  0.37357  0.58458  0.89581  1.0000
  O   O1        1.0  0.75489  0.41091  0.88373  1.0000
  O   O2        1.0  0.24508  0.41093  0.11628  1.0000
  O   O3        1.0  0.74508  0.91093  0.38371  1.0000
  O   O4        1.0  0.25491  0.91092  0.61628  1.0000
  O   O5        1.0  0.43336  0.31711  0.87863  1.0000
  O   O6        1.0  0.56659  0.31710  0.12134  1.0000
  O   O7        1.0  0.06662  0.81711  0.37864  1.0000
  O   O8        1.0  0.93338  0.81710  0.62136  1.0000
