data_image0
_chemical_formula_structural       Na4H32C28S4N4O28
_chemical_formula_sum              "Na4 H32 C28 S4 N4 O28"
_cell_length_a       7.07186
_cell_length_b       12.0228
_cell_length_c       12.3836
_cell_angle_alpha    89.9991
_cell_angle_beta     105.101
_cell_angle_gamma    90

_space_group_name_H-M_alt    "P 1"
_space_group_IT_number       1

loop_
  _space_group_symop_operation_xyz
  'x, y, z'

loop_
  _atom_site_type_symbol
  _atom_site_label
  _atom_site_symmetry_multiplicity
  _atom_site_fract_x
  _atom_site_fract_y
  _atom_site_fract_z
  _atom_site_occupancy
  Na  Na1       1.0  0.26435  0.31716  0.49601  1.0000
  Na  Na2       1.0  0.76433  0.18284  0.49599  1.0000
  Na  Na3       1.0  0.73565  0.68284  0.50398  1.0000
  Na  Na4       1.0  0.23566  0.81716  0.50400  1.0000
  H   H1        1.0  0.00936  0.54814  0.34393  1.0000
  H   H2        1.0  0.50935  0.95187  0.34394  1.0000
  H   H3        1.0  0.99065  0.45187  0.65607  1.0000
  H   H4        1.0  0.49065  0.04813  0.65606  1.0000
  H   H5        1.0  0.77054  0.57338  0.25198  1.0000
  H   H6        1.0  0.27054  0.92663  0.25199  1.0000
  H   H7        1.0  0.22946  0.42662  0.74802  1.0000
  H   H8        1.0  0.72947  0.07337  0.74801  1.0000
  H   H9        1.0  0.39632  0.39620  0.30507  1.0000
  H   H10       1.0  0.89631  0.10381  0.30507  1.0000
  H   H11       1.0  0.60369  0.60381  0.69493  1.0000
  H   H12       1.0  0.10369  0.89619  0.69493  1.0000
  H   H13       1.0  0.65862  0.46998  0.07475  1.0000
  H   H14       1.0  0.15863  0.03000  0.07474  1.0000
  H   H15       1.0  0.34137  0.53000  0.92526  1.0000
  H   H16       1.0  0.84136  0.97001  0.92526  1.0000
  H   H17       1.0  0.09287  0.30261  0.94756  1.0000
  H   H18       1.0  0.59286  0.19739  0.94756  1.0000
  H   H19       1.0  0.90714  0.69739  0.05244  1.0000
  H   H20       1.0  0.40714  0.80260  0.05244  1.0000
  H   H21       1.0  0.33337  0.31785  0.13582  1.0000
  H   H22       1.0  0.83334  0.18217  0.13581  1.0000
  H   H23       1.0  0.66666  0.68216  0.86419  1.0000
  H   H24       1.0  0.16665  0.81783  0.86419  1.0000
  H   H25       1.0  0.15748  0.16797  0.67269  1.0000
  H   H26       1.0  0.65750  0.33203  0.67269  1.0000
  H   H27       1.0  0.84252  0.83203  0.32730  1.0000
  H   H28       1.0  0.34251  0.66797  0.32731  1.0000
  H   H29       1.0  0.15219  0.10218  0.56221  1.0000
  H   H30       1.0  0.65220  0.39783  0.56221  1.0000
  H   H31       1.0  0.84781  0.89782  0.43779  1.0000
  H   H32       1.0  0.34781  0.60218  0.43779  1.0000
  C   C1        1.0  0.88247  0.51009  0.28516  1.0000
  C   C2        1.0  0.38248  0.98992  0.28517  1.0000
  C   C3        1.0  0.11752  0.48992  0.71484  1.0000
  C   C4        1.0  0.61753  0.01008  0.71483  1.0000
  C   C5        1.0  0.12982  0.40346  0.21002  1.0000
  C   C6        1.0  0.62982  0.09653  0.21003  1.0000
  C   C7        1.0  0.87018  0.59653  0.78997  1.0000
  C   C8        1.0  0.37018  0.90346  0.78998  1.0000
  C   C9        1.0  0.93843  0.44831  0.19322  1.0000
  C   C10       1.0  0.43842  0.05169  0.19322  1.0000
  C   C11       1.0  0.06158  0.55169  0.80678  1.0000
  C   C12       1.0  0.56158  0.94831  0.80678  1.0000
  C   C13       1.0  0.80571  0.43613  0.08933  1.0000
  C   C14       1.0  0.30571  0.06386  0.08933  1.0000
  C   C15       1.0  0.19429  0.56386  0.91067  1.0000
  C   C16       1.0  0.69429  0.93614  0.91067  1.0000
  C   C17       1.0  0.86277  0.38248  0.00251  1.0000
  C   C18       1.0  0.36276  0.11751  0.00250  1.0000
  C   C19       1.0  0.13723  0.61752  0.99750  1.0000
  C   C20       1.0  0.63723  0.88249  0.99750  1.0000
  C   C21       1.0  0.05264  0.34008  0.01809  1.0000
  C   C22       1.0  0.55264  0.15991  0.01807  1.0000
  C   C23       1.0  0.94736  0.65991  0.98193  1.0000
  C   C24       1.0  0.44736  0.84008  0.98193  1.0000
  C   C25       1.0  0.18479  0.34967  0.12149  1.0000
  C   C26       1.0  0.68478  0.15032  0.12147  1.0000
  C   C27       1.0  0.81521  0.65032  0.87852  1.0000
  C   C28       1.0  0.31522  0.84967  0.87852  1.0000
  S   S1        1.0  0.77458  0.42028  0.36935  1.0000
  S   S2        1.0  0.27457  0.07973  0.36934  1.0000
  S   S3        1.0  0.22542  0.57972  0.63065  1.0000
  S   S4        1.0  0.72543  0.92027  0.63066  1.0000
  N   N1        1.0  0.72671  0.37262  0.89453  1.0000
  N   N2        1.0  0.22672  0.12738  0.89453  1.0000
  N   N3        1.0  0.27328  0.62738  0.10547  1.0000
  N   N4        1.0  0.77329  0.87262  0.10547  1.0000
  O   O1        1.0  0.91964  0.33501  0.41914  1.0000
  O   O2        1.0  0.41963  0.16500  0.41914  1.0000
  O   O3        1.0  0.08036  0.66500  0.58085  1.0000
  O   O4        1.0  0.58037  0.83500  0.58086  1.0000
  O   O5        1.0  0.72298  0.49318  0.45309  1.0000
  O   O6        1.0  0.22297  0.00682  0.45308  1.0000
  O   O7        1.0  0.27701  0.50682  0.54691  1.0000
  O   O8        1.0  0.77703  0.99318  0.54691  1.0000
  O   O9        1.0  0.60009  0.36939  0.29241  1.0000
  O   O10       1.0  0.10008  0.13061  0.29240  1.0000
  O   O11       1.0  0.39991  0.63062  0.70760  1.0000
  O   O12       1.0  0.89992  0.86938  0.70760  1.0000
  O   O13       1.0  0.25768  0.41669  0.30997  1.0000
  O   O14       1.0  0.75768  0.08332  0.30997  1.0000
  O   O15       1.0  0.74231  0.58331  0.69003  1.0000
  O   O16       1.0  0.24233  0.91668  0.69003  1.0000
  O   O17       1.0  0.55905  0.41248  0.87854  1.0000
  O   O18       1.0  0.05903  0.08752  0.87854  1.0000
  O   O19       1.0  0.44097  0.58753  0.12145  1.0000
  O   O20       1.0  0.94096  0.91247  0.12145  1.0000
  O   O21       1.0  0.78284  0.32220  0.81914  1.0000
  O   O22       1.0  0.28284  0.17780  0.81912  1.0000
  O   O23       1.0  0.21715  0.67779  0.18088  1.0000
  O   O24       1.0  0.71715  0.82221  0.18088  1.0000
  O   O25       1.0  0.11790  0.17396  0.59036  1.0000
  O   O26       1.0  0.61791  0.32604  0.59037  1.0000
  O   O27       1.0  0.88209  0.82604  0.40963  1.0000
  O   O28       1.0  0.38209  0.67396  0.40963  1.0000
