data_image0
_chemical_formula_structural       Cu2H28C28S4N4O12
_chemical_formula_sum              "Cu2 H28 C28 S4 N4 O12"
_cell_length_a       8.66008
_cell_length_b       10.3093
_cell_length_c       12.1742
_cell_angle_alpha    80.4151
_cell_angle_beta     69.1405
_cell_angle_gamma    62.1401

_space_group_name_H-M_alt    "P 1"
_space_group_IT_number       1

loop_
  _space_group_symop_operation_xyz
  'x, y, z'

loop_
  _atom_site_type_symbol
  _atom_site_label
  _atom_site_symmetry_multiplicity
  _atom_site_fract_x
  _atom_site_fract_y
  _atom_site_fract_z
  _atom_site_occupancy
  Cu  Cu1       1.0  0.79275  0.24992  0.41457  1.0000
  Cu  Cu2       1.0  0.20725  0.75008  0.58543  1.0000
  H   H1        1.0  0.12235  0.08401  0.46341  1.0000
  H   H2        1.0  0.41402  0.41577  0.46364  1.0000
  H   H3        1.0  0.87763  0.91598  0.53660  1.0000
  H   H4        1.0  0.58598  0.58422  0.53636  1.0000
  H   H5        1.0  0.08056  0.32429  0.55850  1.0000
  H   H6        1.0  0.36073  0.17578  0.55963  1.0000
  H   H7        1.0  0.91945  0.67572  0.44148  1.0000
  H   H8        1.0  0.63925  0.82422  0.44038  1.0000
  H   H9        1.0  0.03499  0.17810  0.63558  1.0000
  H   H10       1.0  0.32989  0.32214  0.63611  1.0000
  H   H11       1.0  0.96503  0.82190  0.36442  1.0000
  H   H12       1.0  0.67013  0.67786  0.36390  1.0000
  H   H13       1.0  0.05500  0.37461  0.32023  1.0000
  H   H14       1.0  0.62448  0.12526  0.32044  1.0000
  H   H15       1.0  0.94501  0.62538  0.67976  1.0000
  H   H16       1.0  0.37552  0.87475  0.67955  1.0000
  H   H17       1.0  0.10036  0.56374  0.17665  1.0000
  H   H18       1.0  0.72285  0.93608  0.17677  1.0000
  H   H19       1.0  0.89965  0.43625  0.82334  1.0000
  H   H20       1.0  0.27714  0.06392  0.82323  1.0000
  H   H21       1.0  0.61245  0.63039  0.10203  1.0000
  H   H22       1.0  0.28545  0.86935  0.10219  1.0000
  H   H23       1.0  0.38756  0.36960  0.89797  1.0000
  H   H24       1.0  0.71454  0.13066  0.89780  1.0000
  H   H25       1.0  0.58240  0.44479  0.25349  1.0000
  H   H26       1.0  0.16398  0.05489  0.25367  1.0000
  H   H27       1.0  0.41760  0.55520  0.74651  1.0000
  H   H28       1.0  0.83602  0.94512  0.74632  1.0000
  C   C1        1.0  0.80094  0.36892  0.61013  1.0000
  C   C2        1.0  0.58919  0.13119  0.61057  1.0000
  C   C3        1.0  0.19907  0.63107  0.38986  1.0000
  C   C4        1.0  0.41081  0.86880  0.38944  1.0000
  C   C5        1.0  0.00472  0.26009  0.56657  1.0000
  C   C6        1.0  0.42881  0.23997  0.56719  1.0000
  C   C7        1.0  0.99528  0.73991  0.43343  1.0000
  C   C8        1.0  0.57119  0.76003  0.43282  1.0000
  C   C9        1.0  0.96071  0.43420  0.26951  1.0000
  C   C10       1.0  0.76952  0.06566  0.26966  1.0000
  C   C11       1.0  0.03929  0.56579  0.73049  1.0000
  C   C12       1.0  0.23047  0.93434  0.73034  1.0000
  C   C13       1.0  0.98630  0.53908  0.18729  1.0000
  C   C14       1.0  0.82621  0.96080  0.18744  1.0000
  C   C15       1.0  0.01369  0.46092  0.81271  1.0000
  C   C16       1.0  0.17379  0.03921  0.81255  1.0000
  C   C17       1.0  0.86306  0.61007  0.12323  1.0000
  C   C18       1.0  0.01359  0.88983  0.12337  1.0000
  C   C19       1.0  0.13694  0.38993  0.87677  1.0000
  C   C20       1.0  0.98641  0.11017  0.87663  1.0000
  C   C21       1.0  0.71534  0.57591  0.14704  1.0000
  C   C22       1.0  0.13751  0.92390  0.14722  1.0000
  C   C23       1.0  0.28466  0.42409  0.85296  1.0000
  C   C24       1.0  0.86248  0.07611  0.85278  1.0000
  C   C25       1.0  0.69887  0.47035  0.23157  1.0000
  C   C26       1.0  0.06937  0.02940  0.23177  1.0000
  C   C27       1.0  0.30113  0.52965  0.76843  1.0000
  C   C28       1.0  0.93062  0.97060  0.76823  1.0000
  S   S1        1.0  0.88330  0.74016  0.01148  1.0000
  S   S2        1.0  0.10521  0.75987  0.01154  1.0000
  S   S3        1.0  0.11670  0.25984  0.98851  1.0000
  S   S4        1.0  0.89478  0.24014  0.98847  1.0000
  N   N1        1.0  0.82046  0.39976  0.29125  1.0000
  N   N2        1.0  0.88805  0.10008  0.29138  1.0000
  N   N3        1.0  0.17953  0.60024  0.70876  1.0000
  N   N4        1.0  0.11194  0.89993  0.70862  1.0000
  O   O1        1.0  0.70319  0.39830  0.54089  1.0000
  O   O2        1.0  0.75617  0.10168  0.54111  1.0000
  O   O3        1.0  0.29681  0.60170  0.45911  1.0000
  O   O4        1.0  0.24383  0.89832  0.45889  1.0000
  O   O5        1.0  0.73994  0.43032  0.70653  1.0000
  O   O6        1.0  0.55380  0.07002  0.70710  1.0000
  O   O7        1.0  0.26006  0.56967  0.29348  1.0000
  O   O8        1.0  0.44621  0.92999  0.29291  1.0000
  O   O9        1.0  0.06203  0.19332  0.45668  1.0000
  O   O10       1.0  0.48117  0.30646  0.45708  1.0000
  O   O11       1.0  0.93798  0.80666  0.54332  1.0000
  O   O12       1.0  0.51883  0.69353  0.54293  1.0000
