data_image0
_chemical_formula_structural       Ni2H12C4N4O8
_chemical_formula_sum              "Ni2 H12 C4 N4 O8"
_cell_length_a       6.75297
_cell_length_b       7.4127
_cell_length_c       7.57817
_cell_angle_alpha    71.3248
_cell_angle_beta     63.5009
_cell_angle_gamma    62.8593

_space_group_name_H-M_alt    "P 1"
_space_group_IT_number       1

loop_
  _space_group_symop_operation_xyz
  'x, y, z'

loop_
  _atom_site_type_symbol
  _atom_site_label
  _atom_site_symmetry_multiplicity
  _atom_site_fract_x
  _atom_site_fract_y
  _atom_site_fract_z
  _atom_site_occupancy
  Ni  Ni1       1.0  0.75484  0.24994  0.74998  1.0000
  Ni  Ni2       1.0  0.24514  0.75005  0.25003  1.0000
  H   H1        1.0  0.43410  0.60515  0.80560  1.0000
  H   H2        1.0  0.84496  0.89487  0.69416  1.0000
  H   H3        1.0  0.56585  0.39492  0.19427  1.0000
  H   H4        1.0  0.15489  0.10507  0.30593  1.0000
  H   H5        1.0  0.30690  0.44382  0.94946  1.0000
  H   H6        1.0  0.70011  0.05653  0.55057  1.0000
  H   H7        1.0  0.69303  0.55633  0.05045  1.0000
  H   H8        1.0  0.29984  0.94335  0.44953  1.0000
  H   H9        1.0  0.33390  0.50674  0.71209  1.0000
  H   H10       1.0  0.55266  0.99354  0.78793  1.0000
  H   H11       1.0  0.66618  0.49322  0.28781  1.0000
  H   H12       1.0  0.44728  0.00649  0.21216  1.0000
  C   C1        1.0  0.99926  0.52827  0.59016  1.0000
  C   C2        1.0  0.11792  0.97173  0.90985  1.0000
  C   C3        1.0  0.00082  0.47167  0.40983  1.0000
  C   C4        1.0  0.88211  0.02834  0.09016  1.0000
  N   N1        1.0  0.42051  0.47208  0.80769  1.0000
  N   N2        1.0  0.70032  0.02809  0.69225  1.0000
  N   N3        1.0  0.57942  0.52801  0.19225  1.0000
  N   N4        1.0  0.29962  0.97182  0.30779  1.0000
  O   O1        1.0  0.88063  0.46369  0.76268  1.0000
  O   O2        1.0  0.10745  0.03617  0.73733  1.0000
  O   O3        1.0  0.11946  0.53631  0.23732  1.0000
  O   O4        1.0  0.89267  0.96381  0.26268  1.0000
  O   O5        1.0  0.11840  0.63778  0.55155  1.0000
  O   O6        1.0  0.30808  0.86229  0.94853  1.0000
  O   O7        1.0  0.88172  0.36217  0.44836  1.0000
  O   O8        1.0  0.69193  0.13777  0.05158  1.0000
