data_image0
_chemical_formula_structural       Fe2H12C4N4O8
_chemical_formula_sum              "Fe2 H12 C4 N4 O8"
_cell_length_a       6.58517
_cell_length_b       7.43147
_cell_length_c       7.59302
_cell_angle_alpha    72.7603
_cell_angle_beta     64.2946
_cell_angle_gamma    63.7033

_space_group_name_H-M_alt    "P 1"
_space_group_IT_number       1

loop_
  _space_group_symop_operation_xyz
  'x, y, z'

loop_
  _atom_site_type_symbol
  _atom_site_label
  _atom_site_symmetry_multiplicity
  _atom_site_fract_x
  _atom_site_fract_y
  _atom_site_fract_z
  _atom_site_occupancy
  Fe  Fe1       1.0  0.74232  0.25005  0.74996  1.0000
  Fe  Fe2       1.0  0.24687  0.75000  0.25006  1.0000
  H   H1        1.0  0.95693  0.49474  0.71002  1.0000
  H   H2        1.0  0.16166  0.00515  0.78974  1.0000
  H   H3        1.0  0.05547  0.47598  0.28578  1.0000
  H   H4        1.0  0.81714  0.02372  0.21431  1.0000
  H   H5        1.0  0.82748  0.42017  0.94528  1.0000
  H   H6        1.0  0.19281  0.07955  0.55448  1.0000
  H   H7        1.0  0.18235  0.54399  0.04817  1.0000
  H   H8        1.0  0.77420  0.95585  0.45194  1.0000
  H   H9        1.0  0.66240  0.58943  0.82063  1.0000
  H   H10       1.0  0.07211  0.91048  0.67942  1.0000
  H   H11       1.0  0.35097  0.39073  0.17521  1.0000
  H   H12       1.0  0.91661  0.10914  0.32488  1.0000
  C   C1        1.0  0.38251  0.53438  0.59192  1.0000
  C   C2        1.0  0.50844  0.96581  0.90813  1.0000
  C   C3        1.0  0.61755  0.47231  0.41956  1.0000
  C   C4        1.0  0.50918  0.02788  0.08044  1.0000
  N   N1        1.0  0.81111  0.45666  0.80931  1.0000
  N   N2        1.0  0.07695  0.04323  0.69054  1.0000
  N   N3        1.0  0.19724  0.51787  0.18335  1.0000
  N   N4        1.0  0.89824  0.98194  0.31679  1.0000
  O   O1        1.0  0.38968  0.46481  0.76465  1.0000
  O   O2        1.0  0.61873  0.03548  0.73539  1.0000
  O   O3        1.0  0.61449  0.53258  0.24618  1.0000
  O   O4        1.0  0.39281  0.96777  0.25386  1.0000
  O   O5        1.0  0.19017  0.65210  0.55322  1.0000
  O   O6        1.0  0.39514  0.84809  0.94683  1.0000
  O   O7        1.0  0.80828  0.35725  0.46469  1.0000
  O   O8        1.0  0.63017  0.14283  0.03526  1.0000
