data_image0
_chemical_formula_structural       K2Cu2H16C24I2N4O8
_chemical_formula_sum              "K2 Cu2 H16 C24 I2 N4 O8"
_cell_length_a       8.65813
_cell_length_b       9.18678
_cell_length_c       9.18682
_cell_angle_alpha    99.0763
_cell_angle_beta     98.1178
_cell_angle_gamma    98.1171

_space_group_name_H-M_alt    "P 1"
_space_group_IT_number       1

loop_
  _space_group_symop_operation_xyz
  'x, y, z'

loop_
  _atom_site_type_symbol
  _atom_site_label
  _atom_site_symmetry_multiplicity
  _atom_site_fract_x
  _atom_site_fract_y
  _atom_site_fract_z
  _atom_site_occupancy
  K   K1        1.0  0.99998  0.50001  0.50000  1.0000
  K   K2        1.0  0.50002  0.50001  0.50000  1.0000
  Cu  Cu1       1.0  0.00001  0.00000  0.50000  1.0000
  Cu  Cu2       1.0  0.50000  0.50000  1.00000  1.0000
  H   H1        1.0  0.66205  0.83046  0.87481  1.0000
  H   H2        1.0  0.83795  0.12519  0.16953  1.0000
  H   H3        1.0  0.33795  0.16954  0.12520  1.0000
  H   H4        1.0  0.16204  0.87481  0.83046  1.0000
  H   H5        1.0  0.47340  0.01319  0.82743  1.0000
  H   H6        1.0  0.02660  0.17257  0.98680  1.0000
  H   H7        1.0  0.52660  0.98680  0.17258  1.0000
  H   H8        1.0  0.97339  0.82743  0.01320  1.0000
  H   H9        1.0  0.52081  0.17661  0.64154  1.0000
  H   H10       1.0  0.97919  0.35846  0.82339  1.0000
  H   H11       1.0  0.47919  0.82338  0.35846  1.0000
  H   H12       1.0  0.02081  0.64154  0.17662  1.0000
  H   H13       1.0  0.88493  0.82180  0.72995  1.0000
  H   H14       1.0  0.61508  0.27005  0.17820  1.0000
  H   H15       1.0  0.11508  0.17820  0.27006  1.0000
  H   H16       1.0  0.38492  0.72995  0.82180  1.0000
  C   C1        1.0  0.77298  0.18793  0.48451  1.0000
  C   C2        1.0  0.72702  0.51550  0.81207  1.0000
  C   C3        1.0  0.22702  0.81206  0.51549  1.0000
  C   C4        1.0  0.27298  0.48451  0.18793  1.0000
  C   C5        1.0  0.67852  0.90685  0.79680  1.0000
  C   C6        1.0  0.82149  0.20320  0.09315  1.0000
  C   C7        1.0  0.32148  0.09315  0.20321  1.0000
  C   C8        1.0  0.17850  0.79680  0.90685  1.0000
  C   C9        1.0  0.73085  0.09015  0.59433  1.0000
  C   C10       1.0  0.76915  0.40568  0.90985  1.0000
  C   C11       1.0  0.26915  0.90985  0.40567  1.0000
  C   C12       1.0  0.23085  0.59433  0.09015  1.0000
  C   C13       1.0  0.57459  0.00621  0.76971  1.0000
  C   C14       1.0  0.92541  0.23029  0.99378  1.0000
  C   C15       1.0  0.42541  0.99378  0.23029  1.0000
  C   C16       1.0  0.07458  0.76971  0.00622  1.0000
  C   C17       1.0  0.60067  0.09850  0.66600  1.0000
  C   C18       1.0  0.89934  0.33401  0.90150  1.0000
  C   C19       1.0  0.39934  0.90150  0.33400  1.0000
  C   C20       1.0  0.10066  0.66600  0.09850  1.0000
  C   C21       1.0  0.80480  0.90201  0.71826  1.0000
  C   C22       1.0  0.69520  0.28174  0.09798  1.0000
  C   C23       1.0  0.19520  0.09798  0.28174  1.0000
  C   C24       1.0  0.30479  0.71826  0.90202  1.0000
  I   I1        1.0  0.75000  0.72504  0.27495  1.0000
  I   I2        1.0  0.25000  0.27496  0.72504  1.0000
  N   N1        1.0  0.83069  0.99342  0.62072  1.0000
  N   N2        1.0  0.66931  0.37928  0.00658  1.0000
  N   N3        1.0  0.16931  0.00658  0.37928  1.0000
  N   N4        1.0  0.33068  0.62072  0.99342  1.0000
  O   O1        1.0  0.89968  0.16641  0.42961  1.0000
  O   O2        1.0  0.60032  0.57038  0.83359  1.0000
  O   O3        1.0  0.10032  0.83359  0.57038  1.0000
  O   O4        1.0  0.39968  0.42962  0.16641  1.0000
  O   O5        1.0  0.69157  0.28463  0.45414  1.0000
  O   O6        1.0  0.80843  0.54587  0.71537  1.0000
  O   O7        1.0  0.30843  0.71537  0.54587  1.0000
  O   O8        1.0  0.19157  0.45413  0.28463  1.0000
