data_image0
_chemical_formula_structural       Ag4H24C32N12O8
_chemical_formula_sum              "Ag4 H24 C32 N12 O8"
_cell_length_a       4.40218
_cell_length_b       13.9249
_cell_length_c       14.6118
_cell_angle_alpha    109.446
_cell_angle_beta     90.0001
_cell_angle_gamma    89.9996

_space_group_name_H-M_alt    "P 1"
_space_group_IT_number       1

loop_
  _space_group_symop_operation_xyz
  'x, y, z'

loop_
  _atom_site_type_symbol
  _atom_site_label
  _atom_site_symmetry_multiplicity
  _atom_site_fract_x
  _atom_site_fract_y
  _atom_site_fract_z
  _atom_site_occupancy
  Ag  Ag1       1.0  0.69646  0.21631  0.34622  1.0000
  Ag  Ag2       1.0  0.19647  0.28370  0.15378  1.0000
  Ag  Ag3       1.0  0.30353  0.78370  0.65378  1.0000
  Ag  Ag4       1.0  0.80353  0.71630  0.84622  1.0000
  H   H1        1.0  0.04943  0.07275  0.45534  1.0000
  H   H2        1.0  0.54944  0.42725  0.04466  1.0000
  H   H3        1.0  0.95056  0.92725  0.54466  1.0000
  H   H4        1.0  0.45056  0.57275  0.95534  1.0000
  H   H5        1.0  0.36608  0.03265  0.58225  1.0000
  H   H6        1.0  0.86608  0.46735  0.91775  1.0000
  H   H7        1.0  0.63392  0.96735  0.41775  1.0000
  H   H8        1.0  0.13391  0.53265  0.08225  1.0000
  H   H9        1.0  0.65614  0.16482  0.70215  1.0000
  H   H10       1.0  0.15613  0.33518  0.79784  1.0000
  H   H11       1.0  0.34386  0.83518  0.29784  1.0000
  H   H12       1.0  0.84386  0.66482  0.20215  1.0000
  H   H13       1.0  0.64969  0.34668  0.70686  1.0000
  H   H14       1.0  0.14969  0.15332  0.79314  1.0000
  H   H15       1.0  0.35030  0.65332  0.29314  1.0000
  H   H16       1.0  0.85031  0.84668  0.20686  1.0000
  H   H17       1.0  0.57837  0.50011  0.65100  1.0000
  H   H18       1.0  0.07837  0.99989  0.84899  1.0000
  H   H19       1.0  0.42163  0.49989  0.34899  1.0000
  H   H20       1.0  0.92164  0.00011  0.15101  1.0000
  H   H21       1.0  0.33999  0.54575  0.57463  1.0000
  H   H22       1.0  0.83999  0.95425  0.92537  1.0000
  H   H23       1.0  0.66000  0.45425  0.42537  1.0000
  H   H24       1.0  0.16002  0.04575  0.07463  1.0000
  C   C1        1.0  0.16355  0.23341  0.51554  1.0000
  C   C2        1.0  0.66355  0.26659  0.98446  1.0000
  C   C3        1.0  0.83645  0.76659  0.48446  1.0000
  C   C4        1.0  0.33645  0.73341  0.01554  1.0000
  C   C5        1.0  0.17515  0.13123  0.51081  1.0000
  C   C6        1.0  0.67515  0.36878  0.98919  1.0000
  C   C7        1.0  0.82484  0.86877  0.48919  1.0000
  C   C8        1.0  0.32484  0.63122  0.01081  1.0000
  C   C9        1.0  0.35183  0.10998  0.58022  1.0000
  C   C10       1.0  0.85183  0.39002  0.91978  1.0000
  C   C11       1.0  0.64817  0.89002  0.41978  1.0000
  C   C12       1.0  0.14817  0.60999  0.08022  1.0000
  C   C13       1.0  0.52012  0.18672  0.65013  1.0000
  C   C14       1.0  0.02012  0.31328  0.84987  1.0000
  C   C15       1.0  0.47988  0.81328  0.34987  1.0000
  C   C16       1.0  0.97987  0.68672  0.15013  1.0000
  C   C17       1.0  0.51577  0.28776  0.65454  1.0000
  C   C18       1.0  0.01577  0.21224  0.84546  1.0000
  C   C19       1.0  0.48422  0.71224  0.34546  1.0000
  C   C20       1.0  0.98423  0.78776  0.15454  1.0000
  C   C21       1.0  0.32909  0.30958  0.58629  1.0000
  C   C22       1.0  0.82909  0.19043  0.91371  1.0000
  C   C23       1.0  0.67091  0.69042  0.41371  1.0000
  C   C24       1.0  0.17091  0.80958  0.08629  1.0000
  C   C25       1.0  0.34639  0.50114  0.62367  1.0000
  C   C26       1.0  0.84638  0.99886  0.87633  1.0000
  C   C27       1.0  0.65361  0.49886  0.37633  1.0000
  C   C28       1.0  0.15363  0.00114  0.12367  1.0000
  C   C29       1.0  0.13520  0.55085  0.71026  1.0000
  C   C30       1.0  0.63519  0.94915  0.78974  1.0000
  C   C31       1.0  0.86480  0.44915  0.28974  1.0000
  C   C32       1.0  0.36482  0.05085  0.21027  1.0000
  N   N1        1.0  0.00510  0.28100  0.46158  1.0000
  N   N2        1.0  0.50510  0.21901  0.03842  1.0000
  N   N3        1.0  0.99490  0.71900  0.53842  1.0000
  N   N4        1.0  0.49490  0.78100  0.96158  1.0000
  N   N5        1.0  0.06235  0.37936  0.49437  1.0000
  N   N6        1.0  0.56236  0.12064  0.00563  1.0000
  N   N7        1.0  0.93764  0.62064  0.50563  1.0000
  N   N8        1.0  0.43765  0.87936  0.99437  1.0000
  N   N9        1.0  0.25895  0.39762  0.56881  1.0000
  N   N10       1.0  0.75895  0.10238  0.93119  1.0000
  N   N11       1.0  0.74105  0.60238  0.43119  1.0000
  N   N12       1.0  0.24106  0.89762  0.06881  1.0000
  O   O1        1.0  0.16124  0.64872  0.74489  1.0000
  O   O2        1.0  0.66124  0.85127  0.75511  1.0000
  O   O3        1.0  0.83876  0.35127  0.25511  1.0000
  O   O4        1.0  0.33877  0.14872  0.24490  1.0000
  O   O5        1.0  0.95990  0.49763  0.74053  1.0000
  O   O6        1.0  0.45990  0.00237  0.75947  1.0000
  O   O7        1.0  0.04009  0.50237  0.25947  1.0000
  O   O8        1.0  0.54011  0.99762  0.24053  1.0000
