data_image0
_chemical_formula_structural       Ag4H16C16N12O8
_chemical_formula_sum              "Ag4 H16 C16 N12 O8"
_cell_length_a       6.39986
_cell_length_b       7.26606
_cell_length_c       12.7728
_cell_angle_alpha    90.0028
_cell_angle_beta     90.0015
_cell_angle_gamma    90.0003

_space_group_name_H-M_alt    "P 1"
_space_group_IT_number       1

loop_
  _space_group_symop_operation_xyz
  'x, y, z'

loop_
  _atom_site_type_symbol
  _atom_site_label
  _atom_site_symmetry_multiplicity
  _atom_site_fract_x
  _atom_site_fract_y
  _atom_site_fract_z
  _atom_site_occupancy
  Ag  Ag1       1.0  0.90121  0.14331  0.83127  1.0000
  Ag  Ag2       1.0  0.09879  0.85671  0.33125  1.0000
  Ag  Ag3       1.0  0.09878  0.64330  0.83125  1.0000
  Ag  Ag4       1.0  0.90121  0.35671  0.33128  1.0000
  H   H1        1.0  0.41297  0.05651  0.75423  1.0000
  H   H2        1.0  0.58703  0.94352  0.25423  1.0000
  H   H3        1.0  0.58703  0.55650  0.75421  1.0000
  H   H4        1.0  0.41297  0.44351  0.25424  1.0000
  H   H5        1.0  0.59595  0.30639  0.03837  1.0000
  H   H6        1.0  0.40407  0.69360  0.53835  1.0000
  H   H7        1.0  0.40405  0.80638  0.03837  1.0000
  H   H8        1.0  0.59596  0.19362  0.53837  1.0000
  H   H9        1.0  0.99730  0.27516  0.02694  1.0000
  H   H10       1.0  0.00274  0.72486  0.52694  1.0000
  H   H11       1.0  0.00274  0.77511  0.02694  1.0000
  H   H12       1.0  0.99727  0.22480  0.52692  1.0000
  H   H13       1.0  0.19149  0.39367  0.09944  1.0000
  H   H14       1.0  0.80854  0.60632  0.59943  1.0000
  H   H15       1.0  0.80856  0.89366  0.09944  1.0000
  H   H16       1.0  0.19149  0.10631  0.59944  1.0000
  C   C1        1.0  0.40714  0.12016  0.83091  1.0000
  C   C2        1.0  0.59290  0.87985  0.33091  1.0000
  C   C3        1.0  0.59290  0.62015  0.83091  1.0000
  C   C4        1.0  0.40711  0.37983  0.33091  1.0000
  C   C5        1.0  0.50720  0.24365  0.97480  1.0000
  C   C6        1.0  0.49276  0.75638  0.47479  1.0000
  C   C7        1.0  0.49276  0.74363  0.97479  1.0000
  C   C8        1.0  0.50721  0.25638  0.47480  1.0000
  C   C9        1.0  0.15444  0.26283  0.06053  1.0000
  C   C10       1.0  0.84557  0.73717  0.56053  1.0000
  C   C11       1.0  0.84558  0.76282  0.06053  1.0000
  C   C12       1.0  0.15444  0.23714  0.56053  1.0000
  C   C13       1.0  0.16000  0.10645  0.14263  1.0000
  C   C14       1.0  0.83997  0.89356  0.64263  1.0000
  C   C15       1.0  0.83998  0.60643  0.14264  1.0000
  C   C16       1.0  0.15998  0.39356  0.64262  1.0000
  N   N1        1.0  0.29820  0.23137  0.97502  1.0000
  N   N2        1.0  0.70178  0.76863  0.47502  1.0000
  N   N3        1.0  0.70180  0.73136  0.97503  1.0000
  N   N4        1.0  0.29821  0.26861  0.47503  1.0000
  N   N5        1.0  0.23225  0.15067  0.88415  1.0000
  N   N6        1.0  0.76778  0.84933  0.38417  1.0000
  N   N7        1.0  0.76778  0.65066  0.88417  1.0000
  N   N8        1.0  0.23223  0.34930  0.38416  1.0000
  N   N9        1.0  0.58045  0.17544  0.88422  1.0000
  N   N10       1.0  0.41956  0.82456  0.38420  1.0000
  N   N11       1.0  0.41956  0.67543  0.88420  1.0000
  N   N12       1.0  0.58045  0.32458  0.38421  1.0000
  O   O1        1.0  0.00106  0.10012  0.20263  1.0000
  O   O2        1.0  0.99891  0.89992  0.70265  1.0000
  O   O3        1.0  0.99891  0.60012  0.20265  1.0000
  O   O4        1.0  0.00105  0.39992  0.70263  1.0000
  O   O5        1.0  0.31642  0.00209  0.14481  1.0000
  O   O6        1.0  0.68354  0.99791  0.64482  1.0000
  O   O7        1.0  0.68357  0.50207  0.14481  1.0000
  O   O8        1.0  0.31641  0.49792  0.64481  1.0000
