data_image0
_chemical_formula_structural       Cd2H36C36N12Cl4
_chemical_formula_sum              "Cd2 H36 C36 N12 Cl4"
_cell_length_a       9.81262
_cell_length_b       10.3996
_cell_length_c       11.4157
_cell_angle_alpha    62.5913
_cell_angle_beta     79.18
_cell_angle_gamma    83.986

_space_group_name_H-M_alt    "P 1"
_space_group_IT_number       1

loop_
  _space_group_symop_operation_xyz
  'x, y, z'

loop_
  _atom_site_type_symbol
  _atom_site_label
  _atom_site_symmetry_multiplicity
  _atom_site_fract_x
  _atom_site_fract_y
  _atom_site_fract_z
  _atom_site_occupancy
  Cd  Cd1       1.0  0.00890  0.41572  0.68679  1.0000
  Cd  Cd2       1.0  0.99110  0.58428  0.31321  1.0000
  H   H1        1.0  0.33539  0.06415  0.86371  1.0000
  H   H2        1.0  0.66461  0.93585  0.13630  1.0000
  H   H3        1.0  0.57071  0.86434  0.63043  1.0000
  H   H4        1.0  0.42929  0.13566  0.36956  1.0000
  H   H5        1.0  0.76357  0.17509  0.69521  1.0000
  H   H6        1.0  0.23642  0.82491  0.30479  1.0000
  H   H7        1.0  0.57711  0.19190  0.93880  1.0000
  H   H8        1.0  0.42289  0.80810  0.06120  1.0000
  H   H9        1.0  0.61164  0.32898  0.77189  1.0000
  H   H10       1.0  0.38836  0.67102  0.22811  1.0000
  H   H11       1.0  0.36792  0.41037  0.65161  1.0000
  H   H12       1.0  0.63208  0.58963  0.34839  1.0000
  H   H13       1.0  0.08845  0.31578  0.00777  1.0000
  H   H14       1.0  0.91155  0.68422  0.99223  1.0000
  H   H15       1.0  0.34762  0.19658  0.07280  1.0000
  H   H16       1.0  0.65238  0.80342  0.92720  1.0000
  H   H17       1.0  0.22520  0.95223  0.74572  1.0000
  H   H18       1.0  0.77480  0.04778  0.25428  1.0000
  H   H19       1.0  0.32770  0.82344  0.70199  1.0000
  H   H20       1.0  0.67230  0.17656  0.29801  1.0000
  H   H21       1.0  0.11035  0.86961  0.98581  1.0000
  H   H22       1.0  0.88965  0.13038  0.01419  1.0000
  H   H23       1.0  0.26923  0.44122  0.16257  1.0000
  H   H24       1.0  0.73077  0.55879  0.83742  1.0000
  H   H25       1.0  0.40924  0.58538  0.90185  1.0000
  H   H26       1.0  0.59076  0.41462  0.09814  1.0000
  H   H27       1.0  0.79420  0.01693  0.47444  1.0000
  H   H28       1.0  0.20580  0.98307  0.52556  1.0000
  H   H29       1.0  0.88303  0.09355  0.54863  1.0000
  H   H30       1.0  0.11697  0.90645  0.45137  1.0000
  H   H31       1.0  0.84493  0.75661  0.52276  1.0000
  H   H32       1.0  0.15506  0.24339  0.47724  1.0000
  H   H33       1.0  0.09450  0.62661  0.82269  1.0000
  H   H34       1.0  0.90550  0.37340  0.17731  1.0000
  H   H35       1.0  0.98363  0.90683  0.76727  1.0000
  H   H36       1.0  0.01637  0.09316  0.23273  1.0000
  C   C1        1.0  0.54955  0.12843  0.78894  1.0000
  C   C2        1.0  0.45045  0.87157  0.21106  1.0000
  C   C3        1.0  0.43430  0.04836  0.80886  1.0000
  C   C4        1.0  0.56570  0.95164  0.19114  1.0000
  C   C5        1.0  0.44167  0.95218  0.75302  1.0000
  C   C6        1.0  0.55833  0.04782  0.24697  1.0000
  C   C7        1.0  0.56556  0.93653  0.67690  1.0000
  C   C8        1.0  0.43444  0.06347  0.32309  1.0000
  C   C9        1.0  0.68187  0.01617  0.65676  1.0000
  C   C10       1.0  0.31813  0.98383  0.34323  1.0000
  C   C11       1.0  0.67358  0.11109  0.71335  1.0000
  C   C12       1.0  0.32642  0.88891  0.28665  1.0000
  C   C13       1.0  0.54227  0.23944  0.84110  1.0000
  C   C14       1.0  0.45773  0.76056  0.15890  1.0000
  C   C15       1.0  0.32632  0.37251  0.75686  1.0000
  C   C16       1.0  0.67368  0.62749  0.24314  1.0000
  C   C17       1.0  0.18506  0.31830  0.94308  1.0000
  C   C18       1.0  0.81494  0.68170  0.05692  1.0000
  C   C19       1.0  0.31237  0.25932  0.97723  1.0000
  C   C20       1.0  0.68763  0.74068  0.02277  1.0000
  C   C21       1.0  0.31292  0.87408  0.76941  1.0000
  C   C22       1.0  0.68708  0.12592  0.23059  1.0000
  C   C23       1.0  0.17177  0.77146  0.00106  1.0000
  C   C24       1.0  0.82823  0.22854  0.99894  1.0000
  C   C25       1.0  0.25801  0.55219  0.08766  1.0000
  C   C26       1.0  0.74198  0.44781  0.91234  1.0000
  C   C27       1.0  0.32837  0.62167  0.95948  1.0000
  C   C28       1.0  0.67163  0.37833  0.04052  1.0000
  C   C29       1.0  0.81463  0.00595  0.56986  1.0000
  C   C30       1.0  0.18537  0.99404  0.43014  1.0000
  C   C31       1.0  0.89579  0.75605  0.59972  1.0000
  C   C32       1.0  0.10421  0.24395  0.40028  1.0000
  C   C33       1.0  0.02517  0.69512  0.75344  1.0000
  C   C34       1.0  0.97483  0.30487  0.24656  1.0000
  C   C35       1.0  0.97153  0.83127  0.72878  1.0000
  C   C36       1.0  0.02847  0.16873  0.27122  1.0000
  N   N1        1.0  0.40139  0.29571  0.85773  1.0000
  N   N2        1.0  0.59862  0.70429  0.14227  1.0000
  N   N3        1.0  0.19511  0.38814  0.80588  1.0000
  N   N4        1.0  0.80489  0.61186  0.19412  1.0000
  N   N5        1.0  0.27204  0.76051  0.90542  1.0000
  N   N6        1.0  0.72796  0.23949  0.09458  1.0000
  N   N7        1.0  0.16101  0.64641  0.11225  1.0000
  N   N8        1.0  0.83899  0.35359  0.88776  1.0000
  N   N9        1.0  0.89029  0.86839  0.63077  1.0000
  N   N10       1.0  0.10971  0.13161  0.36923  1.0000
  N   N11       1.0  0.97711  0.64992  0.67263  1.0000
  N   N12       1.0  0.02289  0.35008  0.32737  1.0000
  Cl  Cl1       1.0  0.80508  0.48203  0.54221  1.0000
  Cl  Cl2       1.0  0.19492  0.51797  0.45779  1.0000
  Cl  Cl3       1.0  0.04469  0.14218  0.74831  1.0000
  Cl  Cl4       1.0  0.95531  0.85782  0.25170  1.0000
