data_image0
_chemical_formula_structural       U2H12C12N4O16
_chemical_formula_sum              "U2 H12 C12 N4 O16"
_cell_length_a       5.40285
_cell_length_b       6.22561
_cell_length_c       14.653
_cell_angle_alpha    89.9997
_cell_angle_beta     97.2127
_cell_angle_gamma    89.9999

_space_group_name_H-M_alt    "P 1"
_space_group_IT_number       1

loop_
  _space_group_symop_operation_xyz
  'x, y, z'

loop_
  _atom_site_type_symbol
  _atom_site_label
  _atom_site_symmetry_multiplicity
  _atom_site_fract_x
  _atom_site_fract_y
  _atom_site_fract_z
  _atom_site_occupancy
  U   U1        1.0  0.55492  0.69963  0.93792  1.0000
  U   U2        1.0  0.55493  0.30036  0.43791  1.0000
  H   H1        1.0  0.51844  0.16655  0.96913  1.0000
  H   H2        1.0  0.51844  0.83345  0.46913  1.0000
  H   H3        1.0  0.24929  0.10275  0.98807  1.0000
  H   H4        1.0  0.24929  0.89725  0.48807  1.0000
  H   H5        1.0  0.29550  0.69377  0.11353  1.0000
  H   H6        1.0  0.29550  0.30623  0.61353  1.0000
  H   H7        1.0  0.52400  0.86990  0.12192  1.0000
  H   H8        1.0  0.52399  0.13010  0.62192  1.0000
  H   H9        1.0  0.17121  0.09980  0.76066  1.0000
  H   H10       1.0  0.17121  0.90020  0.26066  1.0000
  H   H11       1.0  0.88892  0.20680  0.87821  1.0000
  H   H12       1.0  0.88891  0.79320  0.37820  1.0000
  C   C1        1.0  0.76777  0.59511  0.72832  1.0000
  C   C2        1.0  0.76777  0.40489  0.22832  1.0000
  C   C3        1.0  0.91560  0.53152  0.66107  1.0000
  C   C4        1.0  0.91561  0.46848  0.16107  1.0000
  C   C5        1.0  0.04948  0.24007  0.75021  1.0000
  C   C6        1.0  0.04948  0.75992  0.25021  1.0000
  C   C7        1.0  0.89523  0.29983  0.81574  1.0000
  C   C8        1.0  0.89522  0.70017  0.31574  1.0000
  C   C9        1.0  0.62340  0.80054  0.72074  1.0000
  C   C10       1.0  0.62340  0.19946  0.22074  1.0000
  C   C11       1.0  0.92612  0.65391  0.57201  1.0000
  C   C12       1.0  0.92612  0.34610  0.07202  1.0000
  N   N1        1.0  0.75999  0.48043  0.80562  1.0000
  N   N2        1.0  0.75999  0.51958  0.30562  1.0000
  N   N3        1.0  0.06192  0.35724  0.67432  1.0000
  N   N4        1.0  0.06192  0.64276  0.17432  1.0000
  O   O1        1.0  0.84679  0.84207  0.96162  1.0000
  O   O2        1.0  0.84678  0.15793  0.46162  1.0000
  O   O3        1.0  0.26758  0.55274  0.91254  1.0000
  O   O4        1.0  0.26758  0.44726  0.41254  1.0000
  O   O5        1.0  0.49560  0.84135  0.78690  1.0000
  O   O6        1.0  0.49560  0.15865  0.28690  1.0000
  O   O7        1.0  0.64444  0.91783  0.65293  1.0000
  O   O8        1.0  0.64444  0.08218  0.15293  1.0000
  O   O9        1.0  0.74744  0.61263  0.50619  1.0000
  O   O10       1.0  0.74745  0.38737  0.00619  1.0000
  O   O11       1.0  0.10724  0.77346  0.56794  1.0000
  O   O12       1.0  0.10725  0.22653  0.06794  1.0000
  O   O13       1.0  0.38507  0.06101  0.95054  1.0000
  O   O14       1.0  0.38507  0.93899  0.45054  1.0000
  O   O15       1.0  0.45914  0.73183  0.08939  1.0000
  O   O16       1.0  0.45914  0.26818  0.58939  1.0000
