data_image0
_chemical_formula_structural       U2H8C12N4O14
_chemical_formula_sum              "U2 H8 C12 N4 O14"
_cell_length_a       7.4429
_cell_length_b       7.44296
_cell_length_c       9.79418
_cell_angle_alpha    97.6162
_cell_angle_beta     97.6168
_cell_angle_gamma    103.545

_space_group_name_H-M_alt    "P 1"
_space_group_IT_number       1

loop_
  _space_group_symop_operation_xyz
  'x, y, z'

loop_
  _atom_site_type_symbol
  _atom_site_label
  _atom_site_symmetry_multiplicity
  _atom_site_fract_x
  _atom_site_fract_y
  _atom_site_fract_z
  _atom_site_occupancy
  U   U1        1.0  0.29497  0.24845  0.66493  1.0000
  U   U2        1.0  0.75153  0.70502  0.33507  1.0000
  H   H1        1.0  0.62879  0.23170  0.87736  1.0000
  H   H2        1.0  0.76830  0.37122  0.12264  1.0000
  H   H3        1.0  0.44444  0.18453  0.95754  1.0000
  H   H4        1.0  0.81547  0.55556  0.04247  1.0000
  H   H5        1.0  0.12060  0.23381  0.06576  1.0000
  H   H6        1.0  0.76620  0.87940  0.93424  1.0000
  H   H7        1.0  0.06775  0.27413  0.31598  1.0000
  H   H8        1.0  0.72587  0.93225  0.68402  1.0000
  C   C1        1.0  0.43914  0.10762  0.35007  1.0000
  C   C2        1.0  0.89238  0.56087  0.64993  1.0000
  C   C3        1.0  0.47092  0.08887  0.21159  1.0000
  C   C4        1.0  0.91113  0.52909  0.78841  1.0000
  C   C5        1.0  0.21442  0.19995  0.14814  1.0000
  C   C6        1.0  0.80005  0.78558  0.85186  1.0000
  C   C7        1.0  0.18403  0.22093  0.28684  1.0000
  C   C8        1.0  0.77907  0.81597  0.71315  1.0000
  C   C9        1.0  0.56002  0.06155  0.46808  1.0000
  C   C10       1.0  0.93845  0.43998  0.53192  1.0000
  C   C11       1.0  0.63429  0.02398  0.16355  1.0000
  C   C12       1.0  0.97602  0.36571  0.83645  1.0000
  N   N1        1.0  0.29922  0.17954  0.38748  1.0000
  N   N2        1.0  0.82046  0.70078  0.61252  1.0000
  N   N3        1.0  0.36039  0.14075  0.11192  1.0000
  N   N4        1.0  0.85925  0.63962  0.88808  1.0000
  O   O1        1.0  0.15468  0.01501  0.66214  1.0000
  O   O2        1.0  0.98499  0.84532  0.33786  1.0000
  O   O3        1.0  0.43842  0.47830  0.65985  1.0000
  O   O4        1.0  0.52170  0.56159  0.34014  1.0000
  O   O5        1.0  0.53613  0.11819  0.59070  1.0000
  O   O6        1.0  0.88181  0.46387  0.40930  1.0000
  O   O7        1.0  0.68190  0.97344  0.44375  1.0000
  O   O8        1.0  0.02656  0.31810  0.55625  1.0000
  O   O9        1.0  0.62894  0.84927  0.15975  1.0000
  O   O10       1.0  0.15073  0.37106  0.84025  1.0000
  O   O11       1.0  0.75720  0.14168  0.12474  1.0000
  O   O12       1.0  0.85832  0.24281  0.87526  1.0000
  O   O13       1.0  0.49132  0.22243  0.87081  1.0000
  O   O14       1.0  0.77756  0.50868  0.12919  1.0000
