data_image0
_chemical_formula_structural       Na2H32C24N8
_chemical_formula_sum              "Na2 H32 C24 N8"
_cell_length_a       8.26304
_cell_length_b       8.26343
_cell_length_c       10.3291
_cell_angle_alpha    73.8091
_cell_angle_beta     73.7961
_cell_angle_gamma    72.3236

_space_group_name_H-M_alt    "P 1"
_space_group_IT_number       1

loop_
  _space_group_symop_operation_xyz
  'x, y, z'

loop_
  _atom_site_type_symbol
  _atom_site_label
  _atom_site_symmetry_multiplicity
  _atom_site_fract_x
  _atom_site_fract_y
  _atom_site_fract_z
  _atom_site_occupancy
  Na  Na1       1.0  0.11385  0.88610  0.24998  1.0000
  Na  Na2       1.0  0.88618  0.11392  0.74999  1.0000
  H   H1        1.0  0.67968  0.10585  0.28446  1.0000
  H   H2        1.0  0.89414  0.32034  0.21549  1.0000
  H   H3        1.0  0.32032  0.89412  0.71555  1.0000
  H   H4        1.0  0.10583  0.67960  0.78455  1.0000
  H   H5        1.0  0.43171  0.15647  0.18096  1.0000
  H   H6        1.0  0.84353  0.56831  0.31903  1.0000
  H   H7        1.0  0.56829  0.84348  0.81905  1.0000
  H   H8        1.0  0.15644  0.43167  0.68096  1.0000
  H   H9        1.0  0.76120  0.79409  0.92138  1.0000
  H   H10       1.0  0.20588  0.23875  0.57862  1.0000
  H   H11       1.0  0.23885  0.20591  0.07859  1.0000
  H   H12       1.0  0.79407  0.76129  0.42141  1.0000
  H   H13       1.0  0.99260  0.76208  0.03593  1.0000
  H   H14       1.0  0.23795  0.00732  0.46403  1.0000
  H   H15       1.0  0.00743  0.23791  0.96406  1.0000
  H   H16       1.0  0.76202  0.99268  0.53604  1.0000
  H   H17       1.0  0.46048  0.80008  0.31874  1.0000
  H   H18       1.0  0.19998  0.53943  0.18124  1.0000
  H   H19       1.0  0.53952  0.19994  0.68125  1.0000
  H   H20       1.0  0.80003  0.46058  0.81874  1.0000
  H   H21       1.0  0.33740  0.71702  0.46277  1.0000
  H   H22       1.0  0.28302  0.66254  0.03720  1.0000
  H   H23       1.0  0.66258  0.28302  0.53722  1.0000
  H   H24       1.0  0.71700  0.33743  0.96278  1.0000
  H   H25       1.0  0.35081  0.47317  0.39233  1.0000
  H   H26       1.0  0.52680  0.64917  0.10768  1.0000
  H   H27       1.0  0.64916  0.52688  0.60767  1.0000
  H   H28       1.0  0.47320  0.35083  0.89231  1.0000
  H   H29       1.0  0.56916  0.49074  0.34587  1.0000
  H   H30       1.0  0.50924  0.43080  0.15416  1.0000
  H   H31       1.0  0.43081  0.50928  0.65414  1.0000
  H   H32       1.0  0.49076  0.56920  0.84585  1.0000
  C   C1        1.0  0.69370  0.04002  0.20200  1.0000
  C   C2        1.0  0.95998  0.30633  0.29795  1.0000
  C   C3        1.0  0.30631  0.95996  0.79800  1.0000
  C   C4        1.0  0.04001  0.69365  0.70207  1.0000
  C   C5        1.0  0.55384  0.06947  0.14248  1.0000
  C   C6        1.0  0.93052  0.44618  0.35749  1.0000
  C   C7        1.0  0.44617  0.93051  0.85751  1.0000
  C   C8        1.0  0.06947  0.55382  0.64250  1.0000
  C   C9        1.0  0.73437  0.86745  0.00091  1.0000
  C   C10       1.0  0.13255  0.26561  0.49906  1.0000
  C   C11       1.0  0.26566  0.13253  0.99908  1.0000
  C   C12       1.0  0.86743  0.73442  0.50095  1.0000
  C   C13       1.0  0.86608  0.84909  0.06570  1.0000
  C   C14       1.0  0.15094  0.13388  0.43426  1.0000
  C   C15       1.0  0.13395  0.15091  0.93429  1.0000
  C   C16       1.0  0.84907  0.86613  0.56576  1.0000
  C   C17       1.0  0.56903  0.98527  0.03420  1.0000
  C   C18       1.0  0.01473  0.43099  0.46577  1.0000
  C   C19       1.0  0.43100  0.01471  0.96578  1.0000
  C   C20       1.0  0.98526  0.56904  0.53422  1.0000
  C   C21       1.0  0.43763  0.55527  0.32535  1.0000
  C   C22       1.0  0.44472  0.56234  0.17466  1.0000
  C   C23       1.0  0.56235  0.44476  0.67464  1.0000
  C   C24       1.0  0.55528  0.43766  0.82534  1.0000
  N   N1        1.0  0.85283  0.93312  0.16565  1.0000
  N   N2        1.0  0.06688  0.14721  0.33431  1.0000
  N   N3        1.0  0.14718  0.06687  0.83435  1.0000
  N   N4        1.0  0.93311  0.85277  0.66573  1.0000
  N   N5        1.0  0.36922  0.72861  0.35829  1.0000
  N   N6        1.0  0.27138  0.63073  0.14170  1.0000
  N   N7        1.0  0.63077  0.27142  0.64170  1.0000
  N   N8        1.0  0.72863  0.36927  0.85828  1.0000
