data_image0
_chemical_formula_structural       Na4H48C28N12
_chemical_formula_sum              "Na4 H48 C28 N12"
_cell_length_a       8.41127
_cell_length_b       9.90818
_cell_length_c       9.90823
_cell_angle_alpha    98.606
_cell_angle_beta     90
_cell_angle_gamma    90.0002

_space_group_name_H-M_alt    "P 1"
_space_group_IT_number       1

loop_
  _space_group_symop_operation_xyz
  'x, y, z'

loop_
  _atom_site_type_symbol
  _atom_site_label
  _atom_site_symmetry_multiplicity
  _atom_site_fract_x
  _atom_site_fract_y
  _atom_site_fract_z
  _atom_site_occupancy
  Na  Na1       1.0  0.33035  0.61776  0.38224  1.0000
  Na  Na2       1.0  0.83035  0.88224  0.11776  1.0000
  Na  Na3       1.0  0.16965  0.11776  0.88224  1.0000
  Na  Na4       1.0  0.66965  0.38224  0.61776  1.0000
  H   H1        1.0  0.63344  0.44290  0.23354  1.0000
  H   H2        1.0  0.13343  0.05710  0.26646  1.0000
  H   H3        1.0  0.86656  0.26647  0.05711  1.0000
  H   H4        1.0  0.36657  0.23353  0.44289  1.0000
  H   H5        1.0  0.36657  0.55710  0.76646  1.0000
  H   H6        1.0  0.86656  0.94290  0.73354  1.0000
  H   H7        1.0  0.13344  0.73353  0.94289  1.0000
  H   H8        1.0  0.63344  0.76646  0.55711  1.0000
  H   H9        1.0  0.88441  0.35887  0.30113  1.0000
  H   H10       1.0  0.38441  0.14113  0.19887  1.0000
  H   H11       1.0  0.61559  0.19887  0.14114  1.0000
  H   H12       1.0  0.11559  0.30113  0.35886  1.0000
  H   H13       1.0  0.11559  0.64113  0.69887  1.0000
  H   H14       1.0  0.61558  0.85887  0.80113  1.0000
  H   H15       1.0  0.38442  0.80113  0.85887  1.0000
  H   H16       1.0  0.88442  0.69886  0.64113  1.0000
  H   H17       1.0  0.03780  0.75667  0.44338  1.0000
  H   H18       1.0  0.53780  0.74333  0.05661  1.0000
  H   H19       1.0  0.46219  0.05662  0.74333  1.0000
  H   H20       1.0  0.96220  0.44339  0.75667  1.0000
  H   H21       1.0  0.96219  0.24333  0.55661  1.0000
  H   H22       1.0  0.46219  0.25667  0.94339  1.0000
  H   H23       1.0  0.53780  0.94338  0.25667  1.0000
  H   H24       1.0  0.03780  0.55662  0.24333  1.0000
  H   H25       1.0  0.14170  0.84954  0.35074  1.0000
  H   H26       1.0  0.64170  0.65046  0.14925  1.0000
  H   H27       1.0  0.35830  0.14925  0.65047  1.0000
  H   H28       1.0  0.85830  0.35075  0.84954  1.0000
  H   H29       1.0  0.85830  0.15046  0.64925  1.0000
  H   H30       1.0  0.35830  0.34954  0.85075  1.0000
  H   H31       1.0  0.64170  0.85074  0.34954  1.0000
  H   H32       1.0  0.14170  0.64925  0.15046  1.0000
  H   H33       1.0  0.10294  0.00822  0.54953  1.0000
  H   H34       1.0  0.60294  0.49178  0.95047  1.0000
  H   H35       1.0  0.39706  0.95047  0.49179  1.0000
  H   H36       1.0  0.89706  0.54953  0.00821  1.0000
  H   H37       1.0  0.89706  0.99178  0.45047  1.0000
  H   H38       1.0  0.39706  0.50822  0.04953  1.0000
  H   H39       1.0  0.60294  0.04953  0.50821  1.0000
  H   H40       1.0  0.10294  0.45047  0.99179  1.0000
  H   H41       1.0  0.10843  0.87283  0.64757  1.0000
  H   H42       1.0  0.60843  0.62717  0.85243  1.0000
  H   H43       1.0  0.39156  0.85243  0.62717  1.0000
  H   H44       1.0  0.89156  0.64758  0.87283  1.0000
  H   H45       1.0  0.89157  0.12717  0.35242  1.0000
  H   H46       1.0  0.39156  0.37283  0.14758  1.0000
  H   H47       1.0  0.60843  0.14757  0.37283  1.0000
  H   H48       1.0  0.10843  0.35243  0.12717  1.0000
  C   C1        1.0  0.69429  0.49985  0.32207  1.0000
  C   C2        1.0  0.19430  0.00015  0.17792  1.0000
  C   C3        1.0  0.80570  0.17793  0.00015  1.0000
  C   C4        1.0  0.30570  0.32208  0.49984  1.0000
  C   C5        1.0  0.30569  0.50015  0.67792  1.0000
  C   C6        1.0  0.80569  0.99985  0.82208  1.0000
  C   C7        1.0  0.19430  0.82207  0.99985  1.0000
  C   C8        1.0  0.69429  0.67793  0.50015  1.0000
  C   C9        1.0  0.83867  0.45261  0.36029  1.0000
  C   C10       1.0  0.33865  0.04738  0.13972  1.0000
  C   C11       1.0  0.66134  0.13972  0.04739  1.0000
  C   C12       1.0  0.16136  0.36028  0.45261  1.0000
  C   C13       1.0  0.16136  0.54738  0.63971  1.0000
  C   C14       1.0  0.66135  0.95262  0.86029  1.0000
  C   C15       1.0  0.33866  0.86028  0.95261  1.0000
  C   C16       1.0  0.83867  0.63971  0.54739  1.0000
  C   C17       1.0  0.92659  0.52157  0.47842  1.0000
  C   C18       1.0  0.42659  0.97843  0.02158  1.0000
  C   C19       1.0  0.57341  0.02158  0.97843  1.0000
  C   C20       1.0  0.07341  0.47842  0.52157  1.0000
  C   C21       1.0  0.16253  0.91086  0.55932  1.0000
  C   C22       1.0  0.66253  0.58915  0.94067  1.0000
  C   C23       1.0  0.33747  0.94067  0.58914  1.0000
  C   C24       1.0  0.83747  0.55933  0.91085  1.0000
  C   C25       1.0  0.83747  0.08914  0.44067  1.0000
  C   C26       1.0  0.33747  0.41085  0.05933  1.0000
  C   C27       1.0  0.66253  0.05932  0.41085  1.0000
  C   C28       1.0  0.16253  0.44067  0.08915  1.0000
  N   N1        1.0  0.61458  0.61378  0.38622  1.0000
  N   N2        1.0  0.11458  0.88621  0.11378  1.0000
  N   N3        1.0  0.88542  0.11379  0.88622  1.0000
  N   N4        1.0  0.38543  0.38622  0.61378  1.0000
  N   N5        1.0  0.14382  0.80669  0.43871  1.0000
  N   N6        1.0  0.64382  0.69331  0.06128  1.0000
  N   N7        1.0  0.35618  0.06128  0.69331  1.0000
  N   N8        1.0  0.85618  0.43872  0.80669  1.0000
  N   N9        1.0  0.85618  0.19331  0.56128  1.0000
  N   N10       1.0  0.35618  0.30669  0.93872  1.0000
  N   N11       1.0  0.64382  0.93871  0.30669  1.0000
  N   N12       1.0  0.14382  0.56128  0.19331  1.0000
