data_image0
_chemical_formula_structural       K4H16C12S12N12O4
_chemical_formula_sum              "K4 H16 C12 S12 N12 O4"
_cell_length_a       7.31935
_cell_length_b       10.2176
_cell_length_c       11.5258
_cell_angle_alpha    76.1717
_cell_angle_beta     81.0552
_cell_angle_gamma    88.3048

_space_group_name_H-M_alt    "P 1"
_space_group_IT_number       1

loop_
  _space_group_symop_operation_xyz
  'x, y, z'

loop_
  _atom_site_type_symbol
  _atom_site_label
  _atom_site_symmetry_multiplicity
  _atom_site_fract_x
  _atom_site_fract_y
  _atom_site_fract_z
  _atom_site_occupancy
  K   K1        1.0  0.27443  0.43919  0.45228  1.0000
  K   K2        1.0  0.72556  0.56079  0.54771  1.0000
  K   K3        1.0  0.28255  0.62196  0.09196  1.0000
  K   K4        1.0  0.71748  0.37804  0.90804  1.0000
  H   H1        1.0  0.99400  0.67775  0.30435  1.0000
  H   H2        1.0  0.00600  0.32225  0.69564  1.0000
  H   H3        1.0  0.93382  0.53027  0.29735  1.0000
  H   H4        1.0  0.06619  0.46974  0.70263  1.0000
  H   H5        1.0  0.42027  0.31176  0.21217  1.0000
  H   H6        1.0  0.57974  0.68825  0.78781  1.0000
  H   H7        1.0  0.58549  0.39770  0.22093  1.0000
  H   H8        1.0  0.41452  0.60231  0.77905  1.0000
  H   H9        1.0  0.68047  0.83502  0.13566  1.0000
  H   H10       1.0  0.31953  0.16496  0.86435  1.0000
  H   H11       1.0  0.99522  0.83635  0.81046  1.0000
  H   H12       1.0  0.00477  0.16365  0.18955  1.0000
  H   H13       1.0  0.15701  0.95545  0.60269  1.0000
  H   H14       1.0  0.84298  0.04455  0.39731  1.0000
  H   H15       1.0  0.47980  0.96001  0.27757  1.0000
  H   H16       1.0  0.52019  0.03999  0.72243  1.0000
  C   C1        1.0  0.72713  0.02625  0.01797  1.0000
  C   C2        1.0  0.27289  0.97375  0.98205  1.0000
  C   C3        1.0  0.91238  0.02814  0.83459  1.0000
  C   C4        1.0  0.08761  0.97186  0.16542  1.0000
  C   C5        1.0  0.83837  0.81405  0.97767  1.0000
  C   C6        1.0  0.16163  0.18595  0.02234  1.0000
  C   C7        1.0  0.42885  0.76816  0.39424  1.0000
  C   C8        1.0  0.57114  0.23184  0.60577  1.0000
  C   C9        1.0  0.24950  0.76520  0.57998  1.0000
  C   C10       1.0  0.75050  0.23480  0.42002  1.0000
  C   C11       1.0  0.31072  0.97820  0.43383  1.0000
  C   C12       1.0  0.68927  0.02180  0.56617  1.0000
  S   S1        1.0  0.28006  0.14363  0.38983  1.0000
  S   S2        1.0  0.71994  0.85637  0.61016  1.0000
  S   S3        1.0  0.85322  0.64598  0.01946  1.0000
  S   S4        1.0  0.14678  0.35401  0.98054  1.0000
  S   S5        1.0  0.55150  0.68765  0.29577  1.0000
  S   S6        1.0  0.44848  0.31234  0.70423  1.0000
  S   S7        1.0  0.60147  0.10458  0.11630  1.0000
  S   S8        1.0  0.39854  0.89542  0.88371  1.0000
  S   S9        1.0  0.03339  0.10637  0.70014  1.0000
  S   S10       1.0  0.96660  0.89364  0.29986  1.0000
  S   S11       1.0  0.14425  0.68551  0.71933  1.0000
  S   S12       1.0  0.85574  0.31449  0.28067  1.0000
  N   N1        1.0  0.81355  0.09589  0.90960  1.0000
  N   N2        1.0  0.18646  0.90410  0.09042  1.0000
  N   N3        1.0  0.74546  0.88783  0.05122  1.0000
  N   N4        1.0  0.25454  0.11217  0.94879  1.0000
  N   N5        1.0  0.91874  0.88856  0.86840  1.0000
  N   N6        1.0  0.08126  0.11144  0.13161  1.0000
  N   N7        1.0  0.23256  0.90324  0.54394  1.0000
  N   N8        1.0  0.76744  0.09676  0.45606  1.0000
  N   N9        1.0  0.34739  0.69800  0.50388  1.0000
  N   N10       1.0  0.65260  0.30200  0.49612  1.0000
  N   N11       1.0  0.41374  0.90626  0.36214  1.0000
  N   N12       1.0  0.58626  0.09374  0.63786  1.0000
  O   O1        1.0  0.02288  0.58003  0.32693  1.0000
  O   O2        1.0  0.97713  0.41997  0.67305  1.0000
  O   O3        1.0  0.45923  0.40576  0.19951  1.0000
  O   O4        1.0  0.54078  0.59425  0.80046  1.0000
