data_image0
_chemical_formula_structural       Rb4H16C12S12N12O4
_chemical_formula_sum              "Rb4 H16 C12 S12 N12 O4"
_cell_length_a       7.36848
_cell_length_b       10.4561
_cell_length_c       11.58
_cell_angle_alpha    76.7171
_cell_angle_beta     80.8247
_cell_angle_gamma    89.139

_space_group_name_H-M_alt    "P 1"
_space_group_IT_number       1

loop_
  _space_group_symop_operation_xyz
  'x, y, z'

loop_
  _atom_site_type_symbol
  _atom_site_label
  _atom_site_symmetry_multiplicity
  _atom_site_fract_x
  _atom_site_fract_y
  _atom_site_fract_z
  _atom_site_occupancy
  Rb  Rb1       1.0  0.23551  0.56862  0.05142  1.0000
  Rb  Rb2       1.0  0.76449  0.43138  0.94859  1.0000
  Rb  Rb3       1.0  0.20081  0.37805  0.41749  1.0000
  Rb  Rb4       1.0  0.79919  0.62195  0.58251  1.0000
  H   H1        1.0  0.57273  0.44887  0.21493  1.0000
  H   H2        1.0  0.42728  0.55113  0.78508  1.0000
  H   H3        1.0  0.50401  0.30909  0.20367  1.0000
  H   H4        1.0  0.49599  0.69091  0.79633  1.0000
  H   H5        1.0  0.06116  0.69881  0.28981  1.0000
  H   H6        1.0  0.93884  0.30119  0.71019  1.0000
  H   H7        1.0  0.89778  0.61402  0.27893  1.0000
  H   H8        1.0  0.10222  0.38598  0.72107  1.0000
  H   H9        1.0  0.18141  0.83247  0.63514  1.0000
  H   H10       1.0  0.81859  0.16753  0.36486  1.0000
  H   H11       1.0  0.34489  0.04880  0.89948  1.0000
  H   H12       1.0  0.65511  0.95120  0.10052  1.0000
  H   H13       1.0  0.49287  0.83598  0.30948  1.0000
  H   H14       1.0  0.50713  0.16401  0.69052  1.0000
  H   H15       1.0  0.01803  0.04637  0.22184  1.0000
  H   H16       1.0  0.98197  0.95363  0.77817  1.0000
  C   C1        1.0  0.33757  0.81299  0.47669  1.0000
  C   C2        1.0  0.66243  0.18702  0.52330  1.0000
  C   C3        1.0  0.41266  0.02249  0.33601  1.0000
  C   C4        1.0  0.58734  0.97751  0.66398  1.0000
  C   C5        1.0  0.22830  0.01905  0.51925  1.0000
  C   C6        1.0  0.77170  0.98096  0.48074  1.0000
  C   C7        1.0  0.07403  0.23280  0.10625  1.0000
  C   C8        1.0  0.92597  0.76719  0.89375  1.0000
  C   C9        1.0  0.18732  0.02726  0.06666  1.0000
  C   C10       1.0  0.81269  0.97274  0.93334  1.0000
  C   C11       1.0  0.25774  0.23474  0.92291  1.0000
  C   C12       1.0  0.74226  0.76526  0.07709  1.0000
  S   S1        1.0  0.35058  0.64906  0.51692  1.0000
  S   S2        1.0  0.64941  0.35094  0.48307  1.0000
  S   S3        1.0  0.94982  0.31119  0.20394  1.0000
  S   S4        1.0  0.05019  0.68881  0.79607  1.0000
  S   S5        1.0  0.20968  0.86553  0.10951  1.0000
  S   S6        1.0  0.79032  0.13447  0.89049  1.0000
  S   S7        1.0  0.10234  0.09299  0.61899  1.0000
  S   S8        1.0  0.89766  0.90701  0.38101  1.0000
  S   S9        1.0  0.53368  0.09939  0.20236  1.0000
  S   S10       1.0  0.46631  0.90061  0.79764  1.0000
  S   S11       1.0  0.36886  0.31258  0.78573  1.0000
  S   S12       1.0  0.63113  0.68742  0.21428  1.0000
  N   N1        1.0  0.15910  0.30063  0.99793  1.0000
  N   N2        1.0  0.84090  0.69937  0.00207  1.0000
  N   N3        1.0  0.31509  0.08771  0.41189  1.0000
  N   N4        1.0  0.68490  0.91229  0.58811  1.0000
  N   N5        1.0  0.24581  0.88407  0.55102  1.0000
  N   N6        1.0  0.75419  0.11593  0.44898  1.0000
  N   N7        1.0  0.27044  0.09995  0.95802  1.0000
  N   N8        1.0  0.72956  0.90006  0.04198  1.0000
  N   N9        1.0  0.41789  0.88623  0.36825  1.0000
  N   N10       1.0  0.58211  0.11377  0.63175  1.0000
  N   N11       1.0  0.08607  0.09823  0.13787  1.0000
  N   N12       1.0  0.91393  0.90177  0.86213  1.0000
  O   O1        1.0  0.48060  0.40509  0.18386  1.0000
  O   O2        1.0  0.51941  0.59490  0.81614  1.0000
  O   O3        1.0  0.01920  0.60692  0.30585  1.0000
  O   O4        1.0  0.98080  0.39308  0.69415  1.0000
