data_image0
_chemical_formula_structural       Cs4H8C12S12N12
_chemical_formula_sum              "Cs4 H8 C12 S12 N12"
_cell_length_a       5.37903
_cell_length_b       10.9836
_cell_length_c       14.9357
_cell_angle_alpha    89.4563
_cell_angle_beta     87.5467
_cell_angle_gamma    75.8418

_space_group_name_H-M_alt    "P 1"
_space_group_IT_number       1

loop_
  _space_group_symop_operation_xyz
  'x, y, z'

loop_
  _atom_site_type_symbol
  _atom_site_label
  _atom_site_symmetry_multiplicity
  _atom_site_fract_x
  _atom_site_fract_y
  _atom_site_fract_z
  _atom_site_occupancy
  Cs  Cs1       1.0  0.62535  0.02198  0.75910  1.0000
  Cs  Cs2       1.0  0.64831  0.97763  0.25921  1.0000
  Cs  Cs3       1.0  0.10463  0.23073  0.97357  1.0000
  Cs  Cs4       1.0  0.33379  0.76942  0.47348  1.0000
  H   H1        1.0  0.93900  0.79779  0.06098  1.0000
  H   H2        1.0  0.73519  0.20207  0.56175  1.0000
  H   H3        1.0  0.21279  0.61106  0.77880  1.0000
  H   H4        1.0  0.82251  0.38897  0.27873  1.0000
  H   H5        1.0  0.53487  0.60887  0.90991  1.0000
  H   H6        1.0  0.14567  0.39111  0.40953  1.0000
  H   H7        1.0  0.82132  0.42545  0.61982  1.0000
  H   H8        1.0  0.24602  0.57467  0.11986  1.0000
  C   C1        1.0  0.99525  0.53736  0.69339  1.0000
  C   C2        1.0  0.53171  0.46272  0.19327  1.0000
  C   C3        1.0  0.63707  0.91210  0.99224  1.0000
  C   C4        1.0  0.54805  0.08791  0.49244  1.0000
  C   C5        1.0  0.41381  0.80550  0.90395  1.0000
  C   C6        1.0  0.21945  0.19458  0.40388  1.0000
  C   C7        1.0  0.09610  0.31029  0.69794  1.0000
  C   C8        1.0  0.40655  0.68978  0.19785  1.0000
  C   C9        1.0  0.31712  0.41472  0.78890  1.0000
  C   C10       1.0  0.73090  0.58528  0.28903  1.0000
  C   C11       1.0  0.75695  0.68555  0.99181  1.0000
  C   C12       1.0  0.44392  0.31445  0.49152  1.0000
  S   S1        1.0  0.04699  0.17661  0.65483  1.0000
  S   S2        1.0  0.22481  0.82332  0.15449  1.0000
  S   S3        1.0  0.20050  0.80247  0.82524  1.0000
  S   S4        1.0  0.00361  0.19762  0.32502  1.0000
  S   S5        1.0  0.53590  0.41559  0.86627  1.0000
  S   S6        1.0  0.95023  0.58432  0.36658  1.0000
  S   S7        1.0  0.69766  0.04491  0.03173  1.0000
  S   S8        1.0  0.74147  0.95499  0.53157  1.0000
  S   S9        1.0  0.82923  0.67450  0.65451  1.0000
  S   S10       1.0  0.50324  0.32554  0.15408  1.0000
  S   S11       1.0  0.94518  0.55016  0.02528  1.0000
  S   S12       1.0  0.49965  0.44982  0.52386  1.0000
  N   N1        1.0  0.27030  0.30627  0.76076  1.0000
  N   N2        1.0  0.57627  0.69375  0.26083  1.0000
  N   N3        1.0  0.78844  0.79847  0.01906  1.0000
  N   N4        1.0  0.58603  0.20153  0.51948  1.0000
  N   N5        1.0  0.18056  0.52759  0.75467  1.0000
  N   N6        1.0  0.70698  0.47242  0.25469  1.0000
  N   N7        1.0  0.56289  0.69280  0.93475  1.0000
  N   N8        1.0  0.25681  0.30723  0.43457  1.0000
  N   N9        1.0  0.95942  0.42457  0.66642  1.0000
  N   N10       1.0  0.38342  0.57549  0.16640  1.0000
  N   N11       1.0  0.44901  0.91477  0.93513  1.0000
  N   N12       1.0  0.36310  0.08529  0.43516  1.0000
