data_image0
_chemical_formula_structural       Cs2H4C6S6N6
_chemical_formula_sum              "Cs2 H4 C6 S6 N6"
_cell_length_a       5.03155
_cell_length_b       8.0227
_cell_length_c       10.8713
_cell_angle_alpha    96.9849
_cell_angle_beta     102.35
_cell_angle_gamma    103.974

_space_group_name_H-M_alt    "P 1"
_space_group_IT_number       1

loop_
  _space_group_symop_operation_xyz
  'x, y, z'

loop_
  _atom_site_type_symbol
  _atom_site_label
  _atom_site_symmetry_multiplicity
  _atom_site_fract_x
  _atom_site_fract_y
  _atom_site_fract_z
  _atom_site_occupancy
  Cs  Cs1       1.0  0.35500  0.21686  0.42365  1.0000
  Cs  Cs2       1.0  0.64500  0.78314  0.57636  1.0000
  H   H1        1.0  0.31358  0.45736  0.88138  1.0000
  H   H2        1.0  0.68642  0.54264  0.11863  1.0000
  H   H3        1.0  0.73950  0.12137  0.01693  1.0000
  H   H4        1.0  0.26050  0.87863  0.98307  1.0000
  C   C1        1.0  0.93913  0.32039  0.74532  1.0000
  C   C2        1.0  0.06087  0.67961  0.25468  1.0000
  C   C3        1.0  0.61567  0.12660  0.82079  1.0000
  C   C4        1.0  0.38433  0.87340  0.17921  1.0000
  C   C5        1.0  0.06075  0.29246  0.96782  1.0000
  C   C6        1.0  0.93925  0.70754  0.03218  1.0000
  S   S1        1.0  0.03616  0.42732  0.63058  1.0000
  S   S2        1.0  0.96384  0.57268  0.36941  1.0000
  S   S3        1.0  0.30691  0.97292  0.80059  1.0000
  S   S4        1.0  0.69309  0.02708  0.19941  1.0000
  S   S5        1.0  0.29083  0.33963  0.11080  1.0000
  S   S6        1.0  0.70917  0.66037  0.88920  1.0000
  N   N1        1.0  0.12035  0.36429  0.86622  1.0000
  N   N2        1.0  0.87965  0.63571  0.13378  1.0000
  N   N3        1.0  0.69065  0.19625  0.72221  1.0000
  N   N4        1.0  0.30935  0.80375  0.27779  1.0000
  N   N5        1.0  0.79788  0.17848  0.94213  1.0000
  N   N6        1.0  0.20212  0.82152  0.05787  1.0000
