data_image0
_chemical_formula_structural       Ag8H12C28N4O16
_chemical_formula_sum              "Ag8 H12 C28 N4 O16"
_cell_length_a       6.47633
_cell_length_b       8.64565
_cell_length_c       13.8547
_cell_angle_alpha    90.0001
_cell_angle_beta     90.0006
_cell_angle_gamma    97.925

_space_group_name_H-M_alt    "P 1"
_space_group_IT_number       1

loop_
  _space_group_symop_operation_xyz
  'x, y, z'

loop_
  _atom_site_type_symbol
  _atom_site_label
  _atom_site_symmetry_multiplicity
  _atom_site_fract_x
  _atom_site_fract_y
  _atom_site_fract_z
  _atom_site_occupancy
  Ag  Ag1       1.0  0.22097  0.38210  0.04298  1.0000
  Ag  Ag2       1.0  0.27902  0.61790  0.54297  1.0000
  Ag  Ag3       1.0  0.77902  0.61789  0.95703  1.0000
  Ag  Ag4       1.0  0.72098  0.38211  0.45702  1.0000
  Ag  Ag5       1.0  0.07422  0.55141  0.25931  1.0000
  Ag  Ag6       1.0  0.42579  0.44859  0.75931  1.0000
  Ag  Ag7       1.0  0.92578  0.44859  0.74070  1.0000
  Ag  Ag8       1.0  0.57422  0.55141  0.24070  1.0000
  H   H1        1.0  0.22977  0.21070  0.84706  1.0000
  H   H2        1.0  0.27022  0.78930  0.34707  1.0000
  H   H3        1.0  0.77023  0.78930  0.15294  1.0000
  H   H4        1.0  0.72979  0.21070  0.65294  1.0000
  H   H5        1.0  0.26755  0.94836  0.78264  1.0000
  H   H6        1.0  0.23245  0.05164  0.28265  1.0000
  H   H7        1.0  0.73246  0.05164  0.21736  1.0000
  H   H8        1.0  0.76755  0.94836  0.71736  1.0000
  H   H9        1.0  0.23897  0.05258  0.12949  1.0000
  H   H10       1.0  0.26104  0.94743  0.62949  1.0000
  H   H11       1.0  0.76103  0.94743  0.87051  1.0000
  H   H12       1.0  0.73897  0.05258  0.37051  1.0000
  C   C1        1.0  0.24107  0.11369  0.89593  1.0000
  C   C2        1.0  0.25893  0.88631  0.39594  1.0000
  C   C3        1.0  0.75894  0.88631  0.10407  1.0000
  C   C4        1.0  0.74107  0.11369  0.60406  1.0000
  C   C5        1.0  0.26034  0.96647  0.86023  1.0000
  C   C6        1.0  0.23965  0.03353  0.36023  1.0000
  C   C7        1.0  0.73966  0.03353  0.13977  1.0000
  C   C8        1.0  0.76035  0.96647  0.63977  1.0000
  C   C9        1.0  0.26897  0.84240  0.92420  1.0000
  C   C10       1.0  0.23102  0.15760  0.42420  1.0000
  C   C11       1.0  0.73103  0.15760  0.07581  1.0000
  C   C12       1.0  0.76897  0.84240  0.57580  1.0000
  C   C13       1.0  0.24292  0.02496  0.05302  1.0000
  C   C14       1.0  0.25708  0.97505  0.55302  1.0000
  C   C15       1.0  0.75707  0.97505  0.94698  1.0000
  C   C16       1.0  0.74292  0.02495  0.44698  1.0000
  C   C17       1.0  0.25756  0.87220  0.02362  1.0000
  C   C18       1.0  0.24243  0.12781  0.52362  1.0000
  C   C19       1.0  0.74243  0.12781  0.97639  1.0000
  C   C20       1.0  0.75756  0.87219  0.47638  1.0000
  C   C21       1.0  0.25546  0.74556  0.09779  1.0000
  C   C22       1.0  0.24455  0.25444  0.59779  1.0000
  C   C23       1.0  0.74455  0.25445  0.90222  1.0000
  C   C24       1.0  0.75546  0.74555  0.40221  1.0000
  C   C25       1.0  0.28220  0.68384  0.88238  1.0000
  C   C26       1.0  0.21779  0.31615  0.38238  1.0000
  C   C27       1.0  0.71780  0.31616  0.11762  1.0000
  C   C28       1.0  0.78220  0.68384  0.61762  1.0000
  N   N1        1.0  0.23503  0.14391  0.99138  1.0000
  N   N2        1.0  0.26496  0.85609  0.49138  1.0000
  N   N3        1.0  0.76497  0.85609  0.00862  1.0000
  N   N4        1.0  0.73504  0.14391  0.50862  1.0000
  O   O1        1.0  0.15325  0.76408  0.17475  1.0000
  O   O2        1.0  0.34677  0.23593  0.67475  1.0000
  O   O3        1.0  0.84675  0.23593  0.82525  1.0000
  O   O4        1.0  0.65324  0.76407  0.32525  1.0000
  O   O5        1.0  0.35328  0.63124  0.07930  1.0000
  O   O6        1.0  0.14673  0.36877  0.57930  1.0000
  O   O7        1.0  0.64673  0.36878  0.92071  1.0000
  O   O8        1.0  0.85328  0.63123  0.42070  1.0000
  O   O9        1.0  0.44550  0.67411  0.83240  1.0000
  O   O10       1.0  0.05448  0.32589  0.33239  1.0000
  O   O11       1.0  0.55450  0.32589  0.16761  1.0000
  O   O12       1.0  0.94550  0.67410  0.66760  1.0000
  O   O13       1.0  0.13145  0.57550  0.89434  1.0000
  O   O14       1.0  0.36854  0.42450  0.39433  1.0000
  O   O15       1.0  0.86855  0.42450  0.10567  1.0000
  O   O16       1.0  0.63145  0.57549  0.60566  1.0000
