data_image0
_chemical_formula_structural       Fe2H20Au4C28N12
_chemical_formula_sum              "Fe2 H20 Au4 C28 N12"
_cell_length_a       6.95841
_cell_length_b       8.33695
_cell_length_c       13.8989
_cell_angle_alpha    89.9936
_cell_angle_beta     90.0054
_cell_angle_gamma    97.2077

_space_group_name_H-M_alt    "P 1"
_space_group_IT_number       1

loop_
  _space_group_symop_operation_xyz
  'x, y, z'

loop_
  _atom_site_type_symbol
  _atom_site_label
  _atom_site_symmetry_multiplicity
  _atom_site_fract_x
  _atom_site_fract_y
  _atom_site_fract_z
  _atom_site_occupancy
  Fe  Fe1       1.0  0.98956  0.99605  0.98580  1.0000
  Fe  Fe2       1.0  0.98948  0.49616  0.51422  1.0000
  H   H1        1.0  0.18027  0.47920  0.83217  1.0000
  H   H2        1.0  0.82037  0.99751  0.33784  1.0000
  H   H3        1.0  0.82020  0.49735  0.16212  1.0000
  H   H4        1.0  0.18011  0.97920  0.66785  1.0000
  H   H5        1.0  0.05771  0.74781  0.83736  1.0000
  H   H6        1.0  0.93301  0.72614  0.35631  1.0000
  H   H7        1.0  0.93292  0.22602  0.14369  1.0000
  H   H8        1.0  0.05755  0.24780  0.66266  1.0000
  H   H9        1.0  0.30973  0.36846  0.98391  1.0000
  H   H10       1.0  0.68767  0.12763  0.48243  1.0000
  H   H11       1.0  0.68758  0.62752  0.01750  1.0000
  H   H12       1.0  0.30977  0.86861  0.51612  1.0000
  H   H13       1.0  0.18554  0.80292  0.12736  1.0000
  H   H14       1.0  0.80693  0.71350  0.64752  1.0000
  H   H15       1.0  0.80710  0.21349  0.85245  1.0000
  H   H16       1.0  0.18563  0.30315  0.37269  1.0000
  H   H17       1.0  0.31483  0.53726  0.13403  1.0000
  H   H18       1.0  0.68006  0.98011  0.64013  1.0000
  H   H19       1.0  0.68020  0.48008  0.85979  1.0000
  H   H20       1.0  0.31500  0.03754  0.36604  1.0000
  Au  Au1       1.0  0.53687  0.26195  0.25251  1.0000
  Au  Au2       1.0  0.47701  0.24980  0.74129  1.0000
  Au  Au3       1.0  0.47701  0.74989  0.75870  1.0000
  Au  Au4       1.0  0.53688  0.76192  0.24749  1.0000
  C   C1        1.0  0.34661  0.16184  0.15773  1.0000
  C   C2        1.0  0.67861  0.35395  0.65312  1.0000
  C   C3        1.0  0.67868  0.85395  0.84686  1.0000
  C   C4        1.0  0.34654  0.66195  0.34228  1.0000
  C   C5        1.0  0.72272  0.85898  0.14966  1.0000
  C   C6        1.0  0.28024  0.64619  0.66688  1.0000
  C   C7        1.0  0.28031  0.14608  0.83314  1.0000
  C   C8        1.0  0.72272  0.35909  0.35031  1.0000
  C   C9        1.0  0.18690  0.54757  0.89900  1.0000
  C   C10       1.0  0.81040  0.93732  0.40749  1.0000
  C   C11       1.0  0.81034  0.43719  0.09248  1.0000
  C   C12       1.0  0.18679  0.04761  0.60103  1.0000
  C   C13       1.0  0.11787  0.69732  0.90115  1.0000
  C   C14       1.0  0.87506  0.78680  0.41703  1.0000
  C   C15       1.0  0.87502  0.28669  0.08295  1.0000
  C   C16       1.0  0.11778  0.19736  0.59887  1.0000
  C   C17       1.0  0.25893  0.48662  0.98291  1.0000
  C   C18       1.0  0.73753  0.00949  0.48762  1.0000
  C   C19       1.0  0.73750  0.50939  0.01233  1.0000
  C   C20       1.0  0.25893  0.98675  0.51713  1.0000
  C   C21       1.0  0.18876  0.72755  0.06363  1.0000
  C   C22       1.0  0.80404  0.77947  0.58009  1.0000
  C   C23       1.0  0.80415  0.27944  0.91988  1.0000
  C   C24       1.0  0.18882  0.22775  0.43642  1.0000
  C   C25       1.0  0.26081  0.57975  0.06625  1.0000
  C   C26       1.0  0.73397  0.92798  0.57511  1.0000
  C   C27       1.0  0.73402  0.42792  0.92483  1.0000
  C   C28       1.0  0.26090  0.07997  0.43381  1.0000
  N   N1        1.0  0.23292  0.10313  0.10185  1.0000
  N   N2        1.0  0.80090  0.41295  0.60111  1.0000
  N   N3        1.0  0.80099  0.91290  0.89889  1.0000
  N   N4        1.0  0.23292  0.60330  0.39818  1.0000
  N   N5        1.0  0.82997  0.91257  0.08924  1.0000
  N   N6        1.0  0.16375  0.58691  0.61208  1.0000
  N   N7        1.0  0.16384  0.08680  0.88795  1.0000
  N   N8        1.0  0.82992  0.41270  0.41076  1.0000
  N   N9        1.0  0.11610  0.78532  0.98228  1.0000
  N   N10       1.0  0.87433  0.70951  0.50232  1.0000
  N   N11       1.0  0.87436  0.20943  0.99766  1.0000
  N   N12       1.0  0.11607  0.28544  0.51776  1.0000
