data_image0
_chemical_formula_structural       HgH16C26S2N10O2
_chemical_formula_sum              "Hg1 H16 C26 S2 N10 O2"
_cell_length_a       5.66034
_cell_length_b       7.25047
_cell_length_c       16.1328
_cell_angle_alpha    80.23
_cell_angle_beta     88.4743
_cell_angle_gamma    77.9139

_space_group_name_H-M_alt    "P 1"
_space_group_IT_number       1

loop_
  _space_group_symop_operation_xyz
  'x, y, z'

loop_
  _atom_site_type_symbol
  _atom_site_label
  _atom_site_symmetry_multiplicity
  _atom_site_fract_x
  _atom_site_fract_y
  _atom_site_fract_z
  _atom_site_occupancy
  Hg  Hg1       1.0  0.00001  0.00001  1.00000  1.0000
  H   H1        1.0  0.50790  0.71719  0.95548  1.0000
  H   H2        1.0  0.49212  0.28281  0.04452  1.0000
  H   H3        1.0  0.71100  0.55820  0.84003  1.0000
  H   H4        1.0  0.28901  0.44180  0.15996  1.0000
  H   H5        1.0  0.48421  0.58514  0.70537  1.0000
  H   H6        1.0  0.51579  0.41486  0.29463  1.0000
  H   H7        1.0  0.87875  0.93666  0.81485  1.0000
  H   H8        1.0  0.12127  0.06333  0.18516  1.0000
  H   H9        1.0  0.07193  0.65222  0.23564  1.0000
  H   H10       1.0  0.92804  0.34779  0.76436  1.0000
  H   H11       1.0  0.66086  0.81495  0.27539  1.0000
  H   H12       1.0  0.33912  0.18507  0.72461  1.0000
  H   H13       1.0  0.59657  0.88696  0.42249  1.0000
  H   H14       1.0  0.40341  0.11304  0.57752  1.0000
  H   H15       1.0  0.34183  0.60840  0.47615  1.0000
  H   H16       1.0  0.65814  0.39158  0.52385  1.0000
  C   C1        1.0  0.41389  0.72787  0.89635  1.0000
  C   C2        1.0  0.58613  0.27213  0.10365  1.0000
  C   C3        1.0  0.52591  0.63946  0.83138  1.0000
  C   C4        1.0  0.47410  0.36053  0.16861  1.0000
  C   C5        1.0  0.39977  0.65551  0.75675  1.0000
  C   C6        1.0  0.60023  0.34449  0.24326  1.0000
  C   C7        1.0  0.16227  0.76282  0.74991  1.0000
  C   C8        1.0  0.83773  0.23718  0.25009  1.0000
  C   C9        1.0  0.06152  0.84930  0.81801  1.0000
  C   C10       1.0  0.93849  0.15070  0.18200  1.0000
  C   C11       1.0  0.01812  0.79298  0.67410  1.0000
  C   C12       1.0  0.98187  0.20701  0.32590  1.0000
  C   C13       1.0  0.93147  0.78863  0.54571  1.0000
  C   C14       1.0  0.06851  0.21136  0.45430  1.0000
  C   C15       1.0  0.03712  0.67910  0.29990  1.0000
  C   C16       1.0  0.96286  0.32090  0.70010  1.0000
  C   C17       1.0  0.80753  0.77179  0.32160  1.0000
  C   C18       1.0  0.19245  0.22822  0.67840  1.0000
  C   C19       1.0  0.77029  0.80966  0.40309  1.0000
  C   C20       1.0  0.22970  0.19034  0.59692  1.0000
  C   C21       1.0  0.96492  0.75055  0.46042  1.0000
  C   C22       1.0  0.03506  0.24945  0.53958  1.0000
  C   C23       1.0  0.18792  0.65587  0.43277  1.0000
  C   C24       1.0  0.81206  0.34412  0.56723  1.0000
  C   C25       1.0  0.57472  0.79557  0.09005  1.0000
  C   C26       1.0  0.42534  0.20443  0.90995  1.0000
  S   S1        1.0  0.85134  0.68582  0.07286  1.0000
  S   S2        1.0  0.14869  0.31419  0.92713  1.0000
  N   N1        1.0  0.18570  0.83090  0.88921  1.0000
  N   N2        1.0  0.81432  0.16910  0.11079  1.0000
  N   N3        1.0  0.79160  0.88099  0.66172  1.0000
  N   N4        1.0  0.20840  0.11900  0.33828  1.0000
  N   N5        1.0  0.73574  0.87806  0.57905  1.0000
  N   N6        1.0  0.26426  0.12193  0.42096  1.0000
  N   N7        1.0  0.22457  0.62065  0.35426  1.0000
  N   N8        1.0  0.77540  0.37934  0.64573  1.0000
  N   N9        1.0  0.37370  0.87409  0.10126  1.0000
  N   N10       1.0  0.62635  0.12593  0.89874  1.0000
  O   O1        1.0  0.11907  0.73011  0.60284  1.0000
  O   O2        1.0  0.88093  0.26989  0.39716  1.0000
