data_image0
_chemical_formula_structural       Fe6H24C24N36
_chemical_formula_sum              "Fe6 H24 C24 N36"
_cell_length_a       11.6905
_cell_length_b       11.6905
_cell_length_c       11.6905
_cell_angle_alpha    60.0001
_cell_angle_beta     60.0001
_cell_angle_gamma    60.0001

_space_group_name_H-M_alt    "P 1"
_space_group_IT_number       1

loop_
  _space_group_symop_operation_xyz
  'x, y, z'

loop_
  _atom_site_type_symbol
  _atom_site_label
  _atom_site_symmetry_multiplicity
  _atom_site_fract_x
  _atom_site_fract_y
  _atom_site_fract_z
  _atom_site_occupancy
  Fe  Fe1       1.0  0.00000  1.00000  0.50000  1.0000
  Fe  Fe2       1.0  0.00000  0.50000  1.00000  1.0000
  Fe  Fe3       1.0  0.00000  0.50000  0.50000  1.0000
  Fe  Fe4       1.0  0.50000  0.50000  0.50000  1.0000
  Fe  Fe5       1.0  0.12500  0.62500  0.62500  1.0000
  Fe  Fe6       1.0  0.87500  0.37500  0.37500  1.0000
  H   H1        1.0  0.29641  0.03707  0.33326  1.0000
  H   H2        1.0  0.83326  0.33326  0.03707  1.0000
  H   H3        1.0  0.83326  0.33326  0.79641  1.0000
  H   H4        1.0  0.53707  0.79641  0.33326  1.0000
  H   H5        1.0  0.29641  0.33326  0.03707  1.0000
  H   H6        1.0  0.83326  0.79641  0.33326  1.0000
  H   H7        1.0  0.83326  0.03707  0.33326  1.0000
  H   H8        1.0  0.53707  0.33326  0.79641  1.0000
  H   H9        1.0  0.29641  0.33326  0.33326  1.0000
  H   H10       1.0  0.83326  0.03707  0.79641  1.0000
  H   H11       1.0  0.83326  0.79641  0.03707  1.0000
  H   H12       1.0  0.53707  0.33326  0.33326  1.0000
  H   H13       1.0  0.16674  0.96293  0.66674  1.0000
  H   H14       1.0  0.70359  0.66674  0.96293  1.0000
  H   H15       1.0  0.46293  0.66674  0.20359  1.0000
  H   H16       1.0  0.16674  0.20359  0.66674  1.0000
  H   H17       1.0  0.16674  0.66674  0.96293  1.0000
  H   H18       1.0  0.46293  0.20359  0.66674  1.0000
  H   H19       1.0  0.70359  0.96293  0.66674  1.0000
  H   H20       1.0  0.16674  0.66674  0.20359  1.0000
  H   H21       1.0  0.46293  0.66674  0.66674  1.0000
  H   H22       1.0  0.16674  0.96293  0.20359  1.0000
  H   H23       1.0  0.16674  0.20359  0.96293  1.0000
  H   H24       1.0  0.70359  0.66674  0.66674  1.0000
  C   C1        1.0  0.30875  0.92677  0.38224  1.0000
  C   C2        1.0  0.88224  0.38224  0.92677  1.0000
  C   C3        1.0  0.88224  0.38224  0.80875  1.0000
  C   C4        1.0  0.42677  0.80875  0.38224  1.0000
  C   C5        1.0  0.30875  0.38224  0.92677  1.0000
  C   C6        1.0  0.88224  0.80875  0.38224  1.0000
  C   C7        1.0  0.88224  0.92677  0.38224  1.0000
  C   C8        1.0  0.42677  0.38224  0.80875  1.0000
  C   C9        1.0  0.30875  0.38224  0.38224  1.0000
  C   C10       1.0  0.88224  0.92677  0.80875  1.0000
  C   C11       1.0  0.88224  0.80875  0.92677  1.0000
  C   C12       1.0  0.42677  0.38224  0.38224  1.0000
  C   C13       1.0  0.11776  0.07323  0.61776  1.0000
  C   C14       1.0  0.69125  0.61776  0.07323  1.0000
  C   C15       1.0  0.57323  0.61776  0.19125  1.0000
  C   C16       1.0  0.11776  0.19125  0.61776  1.0000
  C   C17       1.0  0.11776  0.61776  0.07323  1.0000
  C   C18       1.0  0.57323  0.19125  0.61776  1.0000
  C   C19       1.0  0.69125  0.07323  0.61776  1.0000
  C   C20       1.0  0.11776  0.61776  0.19125  1.0000
  C   C21       1.0  0.57323  0.61776  0.61776  1.0000
  C   C22       1.0  0.11776  0.07323  0.19125  1.0000
  C   C23       1.0  0.11776  0.19125  0.07323  1.0000
  C   C24       1.0  0.69125  0.61776  0.61776  1.0000
  N   N1        1.0  0.19556  0.88319  0.46062  1.0000
  N   N2        1.0  0.96062  0.46062  0.88319  1.0000
  N   N3        1.0  0.96062  0.46062  0.69556  1.0000
  N   N4        1.0  0.38319  0.69556  0.46062  1.0000
  N   N5        1.0  0.19556  0.46062  0.88319  1.0000
  N   N6        1.0  0.96062  0.69556  0.46062  1.0000
  N   N7        1.0  0.96062  0.88319  0.46062  1.0000
  N   N8        1.0  0.38319  0.46062  0.69556  1.0000
  N   N9        1.0  0.19556  0.46062  0.46062  1.0000
  N   N10       1.0  0.96062  0.88319  0.69556  1.0000
  N   N11       1.0  0.96062  0.69556  0.88319  1.0000
  N   N12       1.0  0.38319  0.46062  0.46062  1.0000
  N   N13       1.0  0.03938  0.11681  0.53938  1.0000
  N   N14       1.0  0.80444  0.53938  0.11681  1.0000
  N   N15       1.0  0.61681  0.53938  0.30444  1.0000
  N   N16       1.0  0.03938  0.30444  0.53938  1.0000
  N   N17       1.0  0.03938  0.53938  0.11681  1.0000
  N   N18       1.0  0.61681  0.30444  0.53938  1.0000
  N   N19       1.0  0.80444  0.11681  0.53938  1.0000
  N   N20       1.0  0.03938  0.53938  0.30444  1.0000
  N   N21       1.0  0.61681  0.53938  0.53938  1.0000
  N   N22       1.0  0.03938  0.11681  0.30444  1.0000
  N   N23       1.0  0.03938  0.30444  0.11681  1.0000
  N   N24       1.0  0.80444  0.53938  0.53938  1.0000
  N   N25       1.0  0.24255  0.74254  0.50745  1.0000
  N   N26       1.0  0.00745  0.50745  0.74254  1.0000
  N   N27       1.0  0.24255  0.50745  0.74255  1.0000
  N   N28       1.0  0.00745  0.74255  0.50745  1.0000
  N   N29       1.0  0.24255  0.50745  0.50745  1.0000
  N   N30       1.0  0.00745  0.74255  0.74255  1.0000
  N   N31       1.0  0.99255  0.25745  0.49255  1.0000
  N   N32       1.0  0.75745  0.49255  0.25745  1.0000
  N   N33       1.0  0.99254  0.49255  0.25745  1.0000
  N   N34       1.0  0.75745  0.25745  0.49255  1.0000
  N   N35       1.0  0.75745  0.49255  0.49255  1.0000
  N   N36       1.0  0.99255  0.25745  0.25745  1.0000
