data_image0
_chemical_formula_structural       Y2H18C9O24
_chemical_formula_sum              "Y2 H18 C9 O24"
_cell_length_a       8.7767
_cell_length_b       8.77674
_cell_length_c       8.77673
_cell_angle_alpha    66.2824
_cell_angle_beta     66.2823
_cell_angle_gamma    66.2825

_space_group_name_H-M_alt    "P 1"
_space_group_IT_number       1

loop_
  _space_group_symop_operation_xyz
  'x, y, z'

loop_
  _atom_site_type_symbol
  _atom_site_label
  _atom_site_symmetry_multiplicity
  _atom_site_fract_x
  _atom_site_fract_y
  _atom_site_fract_z
  _atom_site_occupancy
  Y   Y1        1.0  0.73233  0.73233  0.73233  1.0000
  Y   Y2        1.0  0.26767  0.26767  0.26767  1.0000
  H   H1        1.0  0.69080  0.82494  0.05020  1.0000
  H   H2        1.0  0.05020  0.69080  0.82494  1.0000
  H   H3        1.0  0.82494  0.05020  0.69080  1.0000
  H   H4        1.0  0.94980  0.17506  0.30921  1.0000
  H   H5        1.0  0.17505  0.30920  0.94981  1.0000
  H   H6        1.0  0.30920  0.94981  0.17506  1.0000
  H   H7        1.0  0.72787  0.78391  0.36257  1.0000
  H   H8        1.0  0.36257  0.72787  0.78392  1.0000
  H   H9        1.0  0.78391  0.36257  0.72787  1.0000
  H   H10       1.0  0.63743  0.21608  0.27213  1.0000
  H   H11       1.0  0.21608  0.27213  0.63744  1.0000
  H   H12       1.0  0.27213  0.63743  0.21608  1.0000
  H   H13       1.0  0.54376  0.87422  0.47570  1.0000
  H   H14       1.0  0.47570  0.54376  0.87422  1.0000
  H   H15       1.0  0.87422  0.47570  0.54376  1.0000
  H   H16       1.0  0.52430  0.12578  0.45624  1.0000
  H   H17       1.0  0.12578  0.45624  0.52430  1.0000
  H   H18       1.0  0.45624  0.52430  0.12578  1.0000
  C   C1        1.0  0.50000  0.03592  0.96407  1.0000
  C   C2        1.0  0.96408  0.50000  0.03592  1.0000
  C   C3        1.0  0.03593  0.96408  0.50000  1.0000
  C   C4        1.0  0.41806  0.08461  0.81601  1.0000
  C   C5        1.0  0.81601  0.41806  0.08461  1.0000
  C   C6        1.0  0.08460  0.81601  0.41806  1.0000
  C   C7        1.0  0.18400  0.91539  0.58194  1.0000
  C   C8        1.0  0.91539  0.58194  0.18399  1.0000
  C   C9        1.0  0.58194  0.18399  0.91539  1.0000
  O   O1        1.0  0.62205  0.87283  0.96232  1.0000
  O   O2        1.0  0.96232  0.62205  0.87283  1.0000
  O   O3        1.0  0.87283  0.96232  0.62205  1.0000
  O   O4        1.0  0.03768  0.12717  0.37795  1.0000
  O   O5        1.0  0.12717  0.37795  0.03768  1.0000
  O   O6        1.0  0.37795  0.03768  0.12717  1.0000
  O   O7        1.0  0.66709  0.81954  0.47182  1.0000
  O   O8        1.0  0.47182  0.66709  0.81954  1.0000
  O   O9        1.0  0.81954  0.47181  0.66709  1.0000
  O   O10       1.0  0.52818  0.18046  0.33291  1.0000
  O   O11       1.0  0.18046  0.33291  0.52819  1.0000
  O   O12       1.0  0.33291  0.52818  0.18046  1.0000
  O   O13       1.0  0.50807  0.00969  0.69803  1.0000
  O   O14       1.0  0.69803  0.50807  0.00969  1.0000
  O   O15       1.0  0.00969  0.69803  0.50807  1.0000
  O   O16       1.0  0.30198  0.99031  0.49193  1.0000
  O   O17       1.0  0.99031  0.49193  0.30197  1.0000
  O   O18       1.0  0.49193  0.30197  0.99031  1.0000
  O   O19       1.0  0.27321  0.19989  0.81868  1.0000
  O   O20       1.0  0.81868  0.27321  0.19989  1.0000
  O   O21       1.0  0.19989  0.81868  0.27321  1.0000
  O   O22       1.0  0.18133  0.80011  0.72678  1.0000
  O   O23       1.0  0.80011  0.72679  0.18132  1.0000
  O   O24       1.0  0.72679  0.18132  0.80011  1.0000
