data_image0
_chemical_formula_structural       Tb2H18C9O24
_chemical_formula_sum              "Tb2 H18 C9 O24"
_cell_length_a       8.79261
_cell_length_b       8.79261
_cell_length_c       8.7926
_cell_angle_alpha    66.2495
_cell_angle_beta     66.2496
_cell_angle_gamma    66.2496

_space_group_name_H-M_alt    "P 1"
_space_group_IT_number       1

loop_
  _space_group_symop_operation_xyz
  'x, y, z'

loop_
  _atom_site_type_symbol
  _atom_site_label
  _atom_site_symmetry_multiplicity
  _atom_site_fract_x
  _atom_site_fract_y
  _atom_site_fract_z
  _atom_site_occupancy
  Tb  Tb1       1.0  0.26785  0.26785  0.26785  1.0000
  Tb  Tb2       1.0  0.73215  0.73215  0.73215  1.0000
  H   H1        1.0  0.30958  0.17508  0.94984  1.0000
  H   H2        1.0  0.94984  0.30959  0.17508  1.0000
  H   H3        1.0  0.17508  0.94984  0.30959  1.0000
  H   H4        1.0  0.05016  0.82491  0.69042  1.0000
  H   H5        1.0  0.82492  0.69042  0.05016  1.0000
  H   H6        1.0  0.69042  0.05016  0.82491  1.0000
  H   H7        1.0  0.27351  0.21603  0.63812  1.0000
  H   H8        1.0  0.63812  0.27350  0.21603  1.0000
  H   H9        1.0  0.21603  0.63812  0.27350  1.0000
  H   H10       1.0  0.36188  0.78397  0.72650  1.0000
  H   H11       1.0  0.78397  0.72650  0.36188  1.0000
  H   H12       1.0  0.72649  0.36188  0.78397  1.0000
  H   H13       1.0  0.45731  0.12580  0.52484  1.0000
  H   H14       1.0  0.52484  0.45731  0.12580  1.0000
  H   H15       1.0  0.12580  0.52484  0.45731  1.0000
  H   H16       1.0  0.47516  0.87420  0.54269  1.0000
  H   H17       1.0  0.87420  0.54269  0.47516  1.0000
  H   H18       1.0  0.54269  0.47516  0.87420  1.0000
  C   C1        1.0  0.50000  0.96408  0.03592  1.0000
  C   C2        1.0  0.03592  0.50000  0.96408  1.0000
  C   C3        1.0  0.96408  0.03592  0.50000  1.0000
  C   C4        1.0  0.58210  0.91520  0.18362  1.0000
  C   C5        1.0  0.18362  0.58210  0.91520  1.0000
  C   C6        1.0  0.91520  0.18362  0.58210  1.0000
  C   C7        1.0  0.81638  0.08479  0.41790  1.0000
  C   C8        1.0  0.08479  0.41790  0.81638  1.0000
  C   C9        1.0  0.41790  0.81638  0.08479  1.0000
  O   O1        1.0  0.37817  0.12694  0.03763  1.0000
  O   O2        1.0  0.03763  0.37818  0.12694  1.0000
  O   O3        1.0  0.12694  0.03764  0.37817  1.0000
  O   O4        1.0  0.96237  0.87306  0.62182  1.0000
  O   O5        1.0  0.87306  0.62183  0.96236  1.0000
  O   O6        1.0  0.62182  0.96237  0.87306  1.0000
  O   O7        1.0  0.33414  0.18068  0.52897  1.0000
  O   O8        1.0  0.52897  0.33414  0.18068  1.0000
  O   O9        1.0  0.18068  0.52897  0.33414  1.0000
  O   O10       1.0  0.47103  0.81932  0.66586  1.0000
  O   O11       1.0  0.81932  0.66586  0.47103  1.0000
  O   O12       1.0  0.66586  0.47103  0.81932  1.0000
  O   O13       1.0  0.49273  0.99022  0.30134  1.0000
  O   O14       1.0  0.30135  0.49273  0.99022  1.0000
  O   O15       1.0  0.99022  0.30134  0.49273  1.0000
  O   O16       1.0  0.69866  0.00978  0.50727  1.0000
  O   O17       1.0  0.00978  0.50727  0.69866  1.0000
  O   O18       1.0  0.50727  0.69866  0.00978  1.0000
  O   O19       1.0  0.72657  0.79978  0.18080  1.0000
  O   O20       1.0  0.18080  0.72657  0.79978  1.0000
  O   O21       1.0  0.79978  0.18080  0.72657  1.0000
  O   O22       1.0  0.81920  0.20022  0.27343  1.0000
  O   O23       1.0  0.20022  0.27343  0.81919  1.0000
  O   O24       1.0  0.27343  0.81919  0.20022  1.0000
