data_image0
_chemical_formula_structural       Lu2H18C9O24
_chemical_formula_sum              "Lu2 H18 C9 O24"
_cell_length_a       8.69683
_cell_length_b       8.69685
_cell_length_c       8.69677
_cell_angle_alpha    66.3914
_cell_angle_beta     66.3916
_cell_angle_gamma    66.3916

_space_group_name_H-M_alt    "P 1"
_space_group_IT_number       1

loop_
  _space_group_symop_operation_xyz
  'x, y, z'

loop_
  _atom_site_type_symbol
  _atom_site_label
  _atom_site_symmetry_multiplicity
  _atom_site_fract_x
  _atom_site_fract_y
  _atom_site_fract_z
  _atom_site_occupancy
  Lu  Lu1       1.0  0.73369  0.73369  0.73369  1.0000
  Lu  Lu2       1.0  0.26631  0.26631  0.26631  1.0000
  H   H1        1.0  0.69310  0.82345  0.05153  1.0000
  H   H2        1.0  0.05154  0.69309  0.82345  1.0000
  H   H3        1.0  0.82345  0.05153  0.69309  1.0000
  H   H4        1.0  0.94847  0.17655  0.30690  1.0000
  H   H5        1.0  0.17655  0.30690  0.94847  1.0000
  H   H6        1.0  0.30691  0.94847  0.17655  1.0000
  H   H7        1.0  0.73375  0.78325  0.36599  1.0000
  H   H8        1.0  0.36599  0.73375  0.78325  1.0000
  H   H9        1.0  0.78324  0.36599  0.73375  1.0000
  H   H10       1.0  0.63401  0.21675  0.26625  1.0000
  H   H11       1.0  0.21675  0.26624  0.63402  1.0000
  H   H12       1.0  0.26625  0.63401  0.21675  1.0000
  H   H13       1.0  0.54802  0.87385  0.47892  1.0000
  H   H14       1.0  0.47892  0.54803  0.87385  1.0000
  H   H15       1.0  0.87384  0.47893  0.54802  1.0000
  H   H16       1.0  0.52108  0.12616  0.45198  1.0000
  H   H17       1.0  0.12615  0.45197  0.52108  1.0000
  H   H18       1.0  0.45198  0.52107  0.12616  1.0000
  C   C1        1.0  0.50001  0.03490  0.96510  1.0000
  C   C2        1.0  0.96510  0.50000  0.03490  1.0000
  C   C3        1.0  0.03491  0.96510  0.50000  1.0000
  C   C4        1.0  0.41878  0.08260  0.81541  1.0000
  C   C5        1.0  0.81541  0.41878  0.08260  1.0000
  C   C6        1.0  0.08260  0.81541  0.41878  1.0000
  C   C7        1.0  0.18460  0.91740  0.58121  1.0000
  C   C8        1.0  0.91740  0.58122  0.18459  1.0000
  C   C9        1.0  0.58122  0.18460  0.91739  1.0000
  O   O1        1.0  0.62377  0.87094  0.96271  1.0000
  O   O2        1.0  0.96270  0.62377  0.87094  1.0000
  O   O3        1.0  0.87094  0.96270  0.62377  1.0000
  O   O4        1.0  0.03730  0.12906  0.37623  1.0000
  O   O5        1.0  0.12906  0.37623  0.03729  1.0000
  O   O6        1.0  0.37623  0.03730  0.12906  1.0000
  O   O7        1.0  0.67211  0.81965  0.47594  1.0000
  O   O8        1.0  0.47594  0.67212  0.81965  1.0000
  O   O9        1.0  0.81965  0.47594  0.67212  1.0000
  O   O10       1.0  0.52406  0.18035  0.32788  1.0000
  O   O11       1.0  0.18035  0.32788  0.52407  1.0000
  O   O12       1.0  0.32788  0.52406  0.18035  1.0000
  O   O13       1.0  0.51135  0.00723  0.69667  1.0000
  O   O14       1.0  0.69668  0.51134  0.00723  1.0000
  O   O15       1.0  0.00722  0.69668  0.51133  1.0000
  O   O16       1.0  0.30332  0.99277  0.48866  1.0000
  O   O17       1.0  0.99277  0.48865  0.30333  1.0000
  O   O18       1.0  0.48866  0.30332  0.99277  1.0000
  O   O19       1.0  0.27211  0.19748  0.81713  1.0000
  O   O20       1.0  0.81713  0.27211  0.19749  1.0000
  O   O21       1.0  0.19750  0.81713  0.27210  1.0000
  O   O22       1.0  0.18288  0.80250  0.72789  1.0000
  O   O23       1.0  0.80252  0.72789  0.18287  1.0000
  O   O24       1.0  0.72789  0.18288  0.80250  1.0000
