data_image0
_chemical_formula_structural       Sm2H18C9O24
_chemical_formula_sum              "Sm2 H18 C9 O24"
_cell_length_a       8.86473
_cell_length_b       8.86473
_cell_length_c       8.86472
_cell_angle_alpha    66.0565
_cell_angle_beta     66.0565
_cell_angle_gamma    66.0564

_space_group_name_H-M_alt    "P 1"
_space_group_IT_number       1

loop_
  _space_group_symop_operation_xyz
  'x, y, z'

loop_
  _atom_site_type_symbol
  _atom_site_label
  _atom_site_symmetry_multiplicity
  _atom_site_fract_x
  _atom_site_fract_y
  _atom_site_fract_z
  _atom_site_occupancy
  Sm  Sm1       1.0  0.26860  0.26860  0.26860  1.0000
  Sm  Sm2       1.0  0.73140  0.73140  0.73140  1.0000
  H   H1        1.0  0.27679  0.21515  0.64112  1.0000
  H   H2        1.0  0.64112  0.27679  0.21515  1.0000
  H   H3        1.0  0.21515  0.64112  0.27679  1.0000
  H   H4        1.0  0.35888  0.78485  0.72321  1.0000
  H   H5        1.0  0.78485  0.72321  0.35888  1.0000
  H   H6        1.0  0.72321  0.35888  0.78485  1.0000
  H   H7        1.0  0.45959  0.12634  0.52693  1.0000
  H   H8        1.0  0.52693  0.45958  0.12634  1.0000
  H   H9        1.0  0.12634  0.52693  0.45958  1.0000
  H   H10       1.0  0.47307  0.87366  0.54042  1.0000
  H   H11       1.0  0.87366  0.54041  0.47307  1.0000
  H   H12       1.0  0.54042  0.47307  0.87366  1.0000
  H   H13       1.0  0.31100  0.17294  0.95154  1.0000
  H   H14       1.0  0.95154  0.31100  0.17294  1.0000
  H   H15       1.0  0.17294  0.95154  0.31101  1.0000
  H   H16       1.0  0.04846  0.82706  0.68900  1.0000
  H   H17       1.0  0.82706  0.68900  0.04846  1.0000
  H   H18       1.0  0.68900  0.04846  0.82706  1.0000
  C   C1        1.0  0.50000  0.96270  0.03730  1.0000
  C   C2        1.0  0.03730  0.50000  0.96270  1.0000
  C   C3        1.0  0.96270  0.03730  0.50000  1.0000
  C   C4        1.0  0.58268  0.91313  0.18345  1.0000
  C   C5        1.0  0.18346  0.58268  0.91313  1.0000
  C   C6        1.0  0.91313  0.18345  0.58268  1.0000
  C   C7        1.0  0.81655  0.08687  0.41732  1.0000
  C   C8        1.0  0.08687  0.41732  0.81654  1.0000
  C   C9        1.0  0.41733  0.81654  0.08687  1.0000
  O   O1        1.0  0.37910  0.12473  0.03852  1.0000
  O   O2        1.0  0.03852  0.37910  0.12473  1.0000
  O   O3        1.0  0.12473  0.03852  0.37910  1.0000
  O   O4        1.0  0.96148  0.87527  0.62090  1.0000
  O   O5        1.0  0.87527  0.62090  0.96148  1.0000
  O   O6        1.0  0.62090  0.96148  0.87526  1.0000
  O   O7        1.0  0.33690  0.18074  0.53231  1.0000
  O   O8        1.0  0.53231  0.33690  0.18073  1.0000
  O   O9        1.0  0.18073  0.53231  0.33690  1.0000
  O   O10       1.0  0.46769  0.81927  0.66310  1.0000
  O   O11       1.0  0.81926  0.66310  0.46769  1.0000
  O   O12       1.0  0.66310  0.46769  0.81927  1.0000
  O   O13       1.0  0.49483  0.98693  0.30112  1.0000
  O   O14       1.0  0.30112  0.49483  0.98693  1.0000
  O   O15       1.0  0.98693  0.30112  0.49483  1.0000
  O   O16       1.0  0.69889  0.01306  0.50517  1.0000
  O   O17       1.0  0.01307  0.50517  0.69889  1.0000
  O   O18       1.0  0.50517  0.69889  0.01306  1.0000
  O   O19       1.0  0.72647  0.79845  0.17905  1.0000
  O   O20       1.0  0.17905  0.72647  0.79845  1.0000
  O   O21       1.0  0.79845  0.17905  0.72647  1.0000
  O   O22       1.0  0.82095  0.20155  0.27353  1.0000
  O   O23       1.0  0.20155  0.27352  0.82095  1.0000
  O   O24       1.0  0.27353  0.82095  0.20155  1.0000
