data_image0
_chemical_formula_structural       Ho2H18C9O24
_chemical_formula_sum              "Ho2 H18 C9 O24"
_cell_length_a       8.75788
_cell_length_b       8.75787
_cell_length_c       8.75791
_cell_angle_alpha    66.3001
_cell_angle_beta     66.2999
_cell_angle_gamma    66.3002

_space_group_name_H-M_alt    "P 1"
_space_group_IT_number       1

loop_
  _space_group_symop_operation_xyz
  'x, y, z'

loop_
  _atom_site_type_symbol
  _atom_site_label
  _atom_site_symmetry_multiplicity
  _atom_site_fract_x
  _atom_site_fract_y
  _atom_site_fract_z
  _atom_site_occupancy
  Ho  Ho1       1.0  0.73264  0.73264  0.73264  1.0000
  Ho  Ho2       1.0  0.26737  0.26736  0.26736  1.0000
  H   H1        1.0  0.69138  0.82427  0.05073  1.0000
  H   H2        1.0  0.05073  0.69138  0.82426  1.0000
  H   H3        1.0  0.82427  0.05073  0.69138  1.0000
  H   H4        1.0  0.94927  0.17573  0.30863  1.0000
  H   H5        1.0  0.17573  0.30862  0.94928  1.0000
  H   H6        1.0  0.30862  0.94927  0.17574  1.0000
  H   H7        1.0  0.72884  0.78367  0.36343  1.0000
  H   H8        1.0  0.36342  0.72883  0.78367  1.0000
  H   H9        1.0  0.78367  0.36343  0.72883  1.0000
  H   H10       1.0  0.63658  0.21633  0.27117  1.0000
  H   H11       1.0  0.21633  0.27116  0.63657  1.0000
  H   H12       1.0  0.27116  0.63658  0.21633  1.0000
  H   H13       1.0  0.54426  0.87425  0.47655  1.0000
  H   H14       1.0  0.47655  0.54425  0.87424  1.0000
  H   H15       1.0  0.87424  0.47656  0.54426  1.0000
  H   H16       1.0  0.52344  0.12576  0.45575  1.0000
  H   H17       1.0  0.12575  0.45574  0.52345  1.0000
  H   H18       1.0  0.45574  0.52345  0.12576  1.0000
  C   C1        1.0  0.50000  0.03552  0.96447  1.0000
  C   C2        1.0  0.96447  0.50000  0.03552  1.0000
  C   C3        1.0  0.03553  0.96447  0.50000  1.0000
  C   C4        1.0  0.41818  0.08389  0.81600  1.0000
  C   C5        1.0  0.81600  0.41818  0.08389  1.0000
  C   C6        1.0  0.08390  0.81599  0.41818  1.0000
  C   C7        1.0  0.18401  0.91611  0.58182  1.0000
  C   C8        1.0  0.91610  0.58182  0.18400  1.0000
  C   C9        1.0  0.58182  0.18400  0.91611  1.0000
  O   O1        1.0  0.62239  0.87218  0.96269  1.0000
  O   O2        1.0  0.96269  0.62239  0.87218  1.0000
  O   O3        1.0  0.87218  0.96269  0.62239  1.0000
  O   O4        1.0  0.03732  0.12782  0.37761  1.0000
  O   O5        1.0  0.12782  0.37761  0.03731  1.0000
  O   O6        1.0  0.37761  0.03731  0.12782  1.0000
  O   O7        1.0  0.66777  0.81954  0.47278  1.0000
  O   O8        1.0  0.47278  0.66777  0.81953  1.0000
  O   O9        1.0  0.81954  0.47278  0.66777  1.0000
  O   O10       1.0  0.52722  0.18046  0.33223  1.0000
  O   O11       1.0  0.18047  0.33223  0.52722  1.0000
  O   O12       1.0  0.33223  0.52722  0.18046  1.0000
  O   O13       1.0  0.50870  0.00854  0.69802  1.0000
  O   O14       1.0  0.69802  0.50869  0.00854  1.0000
  O   O15       1.0  0.00854  0.69803  0.50870  1.0000
  O   O16       1.0  0.30198  0.99146  0.49130  1.0000
  O   O17       1.0  0.99146  0.49130  0.30197  1.0000
  O   O18       1.0  0.49130  0.30198  0.99146  1.0000
  O   O19       1.0  0.27306  0.19934  0.81818  1.0000
  O   O20       1.0  0.81818  0.27304  0.19935  1.0000
  O   O21       1.0  0.19935  0.81818  0.27305  1.0000
  O   O22       1.0  0.18182  0.80065  0.72695  1.0000
  O   O23       1.0  0.80065  0.72695  0.18182  1.0000
  O   O24       1.0  0.72694  0.18183  0.80065  1.0000
