data_image0
_chemical_formula_structural       Gd2H18C9O24
_chemical_formula_sum              "Gd2 H18 C9 O24"
_cell_length_a       8.80889
_cell_length_b       8.80892
_cell_length_c       8.8089
_cell_angle_alpha    66.2465
_cell_angle_beta     66.2462
_cell_angle_gamma    66.2462

_space_group_name_H-M_alt    "P 1"
_space_group_IT_number       1

loop_
  _space_group_symop_operation_xyz
  'x, y, z'

loop_
  _atom_site_type_symbol
  _atom_site_label
  _atom_site_symmetry_multiplicity
  _atom_site_fract_x
  _atom_site_fract_y
  _atom_site_fract_z
  _atom_site_occupancy
  Gd  Gd1       1.0  0.73176  0.73175  0.73175  1.0000
  Gd  Gd2       1.0  0.26824  0.26825  0.26824  1.0000
  H   H1        1.0  0.68935  0.82478  0.05029  1.0000
  H   H2        1.0  0.05029  0.68935  0.82478  1.0000
  H   H3        1.0  0.82478  0.05028  0.68935  1.0000
  H   H4        1.0  0.94971  0.17522  0.31065  1.0000
  H   H5        1.0  0.17522  0.31065  0.94972  1.0000
  H   H6        1.0  0.31065  0.94972  0.17522  1.0000
  H   H7        1.0  0.72389  0.78370  0.36156  1.0000
  H   H8        1.0  0.36156  0.72389  0.78370  1.0000
  H   H9        1.0  0.78370  0.36156  0.72389  1.0000
  H   H10       1.0  0.63844  0.21630  0.27611  1.0000
  H   H11       1.0  0.21629  0.27611  0.63844  1.0000
  H   H12       1.0  0.27611  0.63844  0.21630  1.0000
  H   H13       1.0  0.54073  0.87455  0.47520  1.0000
  H   H14       1.0  0.47520  0.54074  0.87455  1.0000
  H   H15       1.0  0.87455  0.47520  0.54074  1.0000
  H   H16       1.0  0.52480  0.12545  0.45926  1.0000
  H   H17       1.0  0.12545  0.45926  0.52480  1.0000
  H   H18       1.0  0.45927  0.52480  0.12545  1.0000
  C   C1        1.0  0.50000  0.03627  0.96373  1.0000
  C   C2        1.0  0.96373  0.50000  0.03627  1.0000
  C   C3        1.0  0.03627  0.96373  0.50000  1.0000
  C   C4        1.0  0.41762  0.08558  0.81638  1.0000
  C   C5        1.0  0.81638  0.41763  0.08557  1.0000
  C   C6        1.0  0.08558  0.81637  0.41763  1.0000
  C   C7        1.0  0.18362  0.91442  0.58237  1.0000
  C   C8        1.0  0.91442  0.58237  0.18362  1.0000
  C   C9        1.0  0.58237  0.18362  0.91442  1.0000
  O   O1        1.0  0.62122  0.87351  0.96213  1.0000
  O   O2        1.0  0.96213  0.62122  0.87351  1.0000
  O   O3        1.0  0.87351  0.96212  0.62122  1.0000
  O   O4        1.0  0.03788  0.12649  0.37878  1.0000
  O   O5        1.0  0.12649  0.37878  0.03788  1.0000
  O   O6        1.0  0.37878  0.03788  0.12649  1.0000
  O   O7        1.0  0.66387  0.81944  0.47034  1.0000
  O   O8        1.0  0.47034  0.66387  0.81944  1.0000
  O   O9        1.0  0.81944  0.47034  0.66387  1.0000
  O   O10       1.0  0.52966  0.18056  0.33613  1.0000
  O   O11       1.0  0.18056  0.33613  0.52966  1.0000
  O   O12       1.0  0.33613  0.52966  0.18056  1.0000
  O   O13       1.0  0.50580  0.01038  0.69901  1.0000
  O   O14       1.0  0.69901  0.50581  0.01038  1.0000
  O   O15       1.0  0.01039  0.69901  0.50580  1.0000
  O   O16       1.0  0.30098  0.98961  0.49420  1.0000
  O   O17       1.0  0.98961  0.49419  0.30099  1.0000
  O   O18       1.0  0.49420  0.30099  0.98961  1.0000
  O   O19       1.0  0.27419  0.20203  0.81884  1.0000
  O   O20       1.0  0.81884  0.27419  0.20203  1.0000
  O   O21       1.0  0.20204  0.81884  0.27419  1.0000
  O   O22       1.0  0.18116  0.79796  0.72581  1.0000
  O   O23       1.0  0.79797  0.72581  0.18116  1.0000
  O   O24       1.0  0.72581  0.18116  0.79796  1.0000
