data_image0
_chemical_formula_structural       Zn2H32C48N8O8
_chemical_formula_sum              "Zn2 H32 C48 N8 O8"
_cell_length_a       5.34558
_cell_length_b       14.3167
_cell_length_c       18.7245
_cell_angle_alpha    100.584
_cell_angle_beta     90.0262
_cell_angle_gamma    100.705

_space_group_name_H-M_alt    "P 1"
_space_group_IT_number       1

loop_
  _space_group_symop_operation_xyz
  'x, y, z'

loop_
  _atom_site_type_symbol
  _atom_site_label
  _atom_site_symmetry_multiplicity
  _atom_site_fract_x
  _atom_site_fract_y
  _atom_site_fract_z
  _atom_site_occupancy
  Zn  Zn1       1.0  0.07500  0.00020  0.75010  1.0000
  Zn  Zn2       1.0  0.92506  0.99980  0.24992  1.0000
  H   H1        1.0  0.68245  0.11095  0.71144  1.0000
  H   H2        1.0  0.57228  0.88925  0.78858  1.0000
  H   H3        1.0  0.31754  0.88901  0.28857  1.0000
  H   H4        1.0  0.42774  0.11076  0.21144  1.0000
  H   H5        1.0  0.41831  0.11304  0.60409  1.0000
  H   H6        1.0  0.30608  0.88703  0.89582  1.0000
  H   H7        1.0  0.58168  0.88693  0.39592  1.0000
  H   H8        1.0  0.69393  0.11298  0.10418  1.0000
  H   H9        1.0  0.78171  0.88731  0.48541  1.0000
  H   H10       1.0  0.89365  0.11291  0.01470  1.0000
  H   H11       1.0  0.21843  0.11272  0.51459  1.0000
  H   H12       1.0  0.10637  0.88708  0.98532  1.0000
  H   H13       1.0  0.02635  0.89438  0.59877  1.0000
  H   H14       1.0  0.13125  0.10592  0.90141  1.0000
  H   H15       1.0  0.97372  0.10563  0.40122  1.0000
  H   H16       1.0  0.86879  0.89408  0.09861  1.0000
  H   H17       1.0  0.49860  0.81509  0.62365  1.0000
  H   H18       1.0  0.68387  0.18520  0.87618  1.0000
  H   H19       1.0  0.50144  0.18490  0.37636  1.0000
  H   H20       1.0  0.31615  0.81481  0.12384  1.0000
  H   H21       1.0  0.64490  0.67917  0.53899  1.0000
  H   H22       1.0  0.96610  0.32094  0.96080  1.0000
  H   H23       1.0  0.35498  0.32080  0.46100  1.0000
  H   H24       1.0  0.03394  0.67906  0.03922  1.0000
  H   H25       1.0  0.01086  0.47907  0.59768  1.0000
  H   H26       1.0  0.53199  0.52138  0.90226  1.0000
  H   H27       1.0  0.98884  0.52096  0.40227  1.0000
  H   H28       1.0  0.46806  0.47863  0.09774  1.0000
  H   H29       1.0  0.86109  0.61648  0.68073  1.0000
  H   H30       1.0  0.24469  0.38412  0.81923  1.0000
  H   H31       1.0  0.13876  0.38355  0.31925  1.0000
  H   H32       1.0  0.75536  0.61588  0.18078  1.0000
  C   C1        1.0  0.69685  0.06258  0.66016  1.0000
  C   C2        1.0  0.63481  0.93760  0.83988  1.0000
  C   C3        1.0  0.30317  0.93740  0.33985  1.0000
  C   C4        1.0  0.36522  0.06240  0.16013  1.0000
  C   C5        1.0  0.55049  0.06302  0.59892  1.0000
  C   C6        1.0  0.48803  0.93708  0.90107  1.0000
  C   C7        1.0  0.44953  0.93697  0.40108  1.0000
  C   C8        1.0  0.51201  0.06292  0.09893  1.0000
  C   C9        1.0  0.57527  0.00046  0.53325  1.0000
  C   C10       1.0  0.57482  0.99962  0.96678  1.0000
  C   C11       1.0  0.42481  0.99955  0.46675  1.0000
  C   C12       1.0  0.42520  0.00038  0.03322  1.0000
  C   C13       1.0  0.75065  0.93856  0.53362  1.0000
  C   C14       1.0  0.81168  0.06163  0.96647  1.0000
  C   C15       1.0  0.24945  0.06146  0.46638  1.0000
  C   C16       1.0  0.18836  0.93837  0.03354  1.0000
  C   C17       1.0  0.88901  0.94152  0.59686  1.0000
  C   C18       1.0  0.94710  0.05871  0.90327  1.0000
  C   C19       1.0  0.11107  0.05849  0.40314  1.0000
  C   C20       1.0  0.05292  0.94128  0.09674  1.0000
  C   C21       1.0  0.08388  0.80565  0.70545  1.0000
  C   C22       1.0  0.27798  0.19474  0.79460  1.0000
  C   C23       1.0  0.91613  0.19436  0.29455  1.0000
  C   C24       1.0  0.72209  0.80526  0.20542  1.0000
  C   C25       1.0  0.17200  0.72352  0.65675  1.0000
  C   C26       1.0  0.44851  0.27687  0.84315  1.0000
  C   C27       1.0  0.82794  0.27648  0.34323  1.0000
  C   C28       1.0  0.55153  0.72314  0.15686  1.0000
  C   C29       1.0  0.39222  0.74135  0.61653  1.0000
  C   C30       1.0  0.65116  0.25895  0.88330  1.0000
  C   C31       1.0  0.60774  0.25864  0.38346  1.0000
  C   C32       1.0  0.34886  0.74105  0.11671  1.0000
  C   C33       1.0  0.47351  0.66681  0.57004  1.0000
  C   C34       1.0  0.80697  0.33339  0.92980  1.0000
  C   C35       1.0  0.52636  0.33317  0.42993  1.0000
  C   C36       1.0  0.19307  0.66660  0.07021  1.0000
  C   C37       1.0  0.33496  0.57171  0.56368  1.0000
  C   C38       1.0  0.76350  0.42854  0.93621  1.0000
  C   C39       1.0  0.66485  0.42829  0.43628  1.0000
  C   C40       1.0  0.23656  0.57146  0.06380  1.0000
  C   C41       1.0  0.11477  0.55335  0.60381  1.0000
  C   C42       1.0  0.56163  0.44704  0.89609  1.0000
  C   C43       1.0  0.88498  0.44666  0.39613  1.0000
  C   C44       1.0  0.43843  0.55297  0.10392  1.0000
  C   C45       1.0  0.03266  0.62892  0.64973  1.0000
  C   C46       1.0  0.40391  0.37153  0.85017  1.0000
  C   C47       1.0  0.96718  0.37109  0.35024  1.0000
  C   C48       1.0  0.59613  0.62847  0.14984  1.0000
  N   N1        1.0  0.40514  0.49022  0.51955  1.0000
  N   N2        1.0  0.91512  0.50989  0.98043  1.0000
  N   N3        1.0  0.59459  0.50978  0.48040  1.0000
  N   N4        1.0  0.08494  0.49012  0.01957  1.0000
  N   N5        1.0  0.86367  0.00261  0.65922  1.0000
  N   N6        1.0  0.86119  0.99764  0.84086  1.0000
  N   N7        1.0  0.13637  0.99738  0.34078  1.0000
  N   N8        1.0  0.13884  0.00236  0.15915  1.0000
  O   O1        1.0  0.23580  0.89021  0.70984  1.0000
  O   O2        1.0  0.34537  0.11013  0.79039  1.0000
  O   O3        1.0  0.76427  0.10979  0.29019  1.0000
  O   O4        1.0  0.65467  0.88986  0.20963  1.0000
  O   O5        1.0  0.87833  0.79323  0.73691  1.0000
  O   O6        1.0  0.08479  0.20720  0.76310  1.0000
  O   O7        1.0  0.12167  0.20679  0.26309  1.0000
  O   O8        1.0  0.91527  0.79278  0.23691  1.0000
