data_image0
_chemical_formula_structural       Dy2H18C9O24
_chemical_formula_sum              "Dy2 H18 C9 O24"
_cell_length_a       8.7714
_cell_length_b       8.77141
_cell_length_c       8.77141
_cell_angle_alpha    66.3206
_cell_angle_beta     66.3206
_cell_angle_gamma    66.3206

_space_group_name_H-M_alt    "P 1"
_space_group_IT_number       1

loop_
  _space_group_symop_operation_xyz
  'x, y, z'

loop_
  _atom_site_type_symbol
  _atom_site_label
  _atom_site_symmetry_multiplicity
  _atom_site_fract_x
  _atom_site_fract_y
  _atom_site_fract_z
  _atom_site_occupancy
  Dy  Dy1       1.0  0.26757  0.26757  0.26757  1.0000
  Dy  Dy2       1.0  0.73243  0.73243  0.73243  1.0000
  H   H1        1.0  0.30966  0.17567  0.94913  1.0000
  H   H2        1.0  0.94912  0.30966  0.17567  1.0000
  H   H3        1.0  0.17567  0.94912  0.30966  1.0000
  H   H4        1.0  0.05088  0.82433  0.69034  1.0000
  H   H5        1.0  0.82433  0.69034  0.05088  1.0000
  H   H6        1.0  0.69034  0.05087  0.82433  1.0000
  H   H7        1.0  0.27274  0.21677  0.63691  1.0000
  H   H8        1.0  0.63691  0.27274  0.21677  1.0000
  H   H9        1.0  0.21677  0.63691  0.27274  1.0000
  H   H10       1.0  0.36308  0.78323  0.72726  1.0000
  H   H11       1.0  0.78323  0.72726  0.36308  1.0000
  H   H12       1.0  0.72726  0.36308  0.78323  1.0000
  H   H13       1.0  0.45665  0.12543  0.52375  1.0000
  H   H14       1.0  0.52375  0.45665  0.12543  1.0000
  H   H15       1.0  0.12543  0.52375  0.45665  1.0000
  H   H16       1.0  0.47625  0.87457  0.54335  1.0000
  H   H17       1.0  0.87457  0.54335  0.47625  1.0000
  H   H18       1.0  0.54335  0.47625  0.87457  1.0000
  C   C1        1.0  0.50000  0.96409  0.03591  1.0000
  C   C2        1.0  0.03591  0.50000  0.96409  1.0000
  C   C3        1.0  0.96409  0.03591  0.50000  1.0000
  C   C4        1.0  0.58197  0.91502  0.18424  1.0000
  C   C5        1.0  0.18424  0.58197  0.91502  1.0000
  C   C6        1.0  0.91502  0.18424  0.58197  1.0000
  C   C7        1.0  0.81576  0.08498  0.41803  1.0000
  C   C8        1.0  0.08498  0.41803  0.81576  1.0000
  C   C9        1.0  0.41803  0.81576  0.08498  1.0000
  O   O1        1.0  0.37800  0.12721  0.03769  1.0000
  O   O2        1.0  0.03769  0.37800  0.12721  1.0000
  O   O3        1.0  0.12721  0.03769  0.37800  1.0000
  O   O4        1.0  0.96231  0.87279  0.62200  1.0000
  O   O5        1.0  0.87279  0.62200  0.96231  1.0000
  O   O6        1.0  0.62200  0.96231  0.87279  1.0000
  O   O7        1.0  0.33319  0.18039  0.52794  1.0000
  O   O8        1.0  0.52794  0.33319  0.18038  1.0000
  O   O9        1.0  0.18039  0.52794  0.33319  1.0000
  O   O10       1.0  0.47206  0.81962  0.66681  1.0000
  O   O11       1.0  0.81962  0.66681  0.47206  1.0000
  O   O12       1.0  0.66681  0.47206  0.81961  1.0000
  O   O13       1.0  0.49259  0.99045  0.30192  1.0000
  O   O14       1.0  0.30192  0.49259  0.99045  1.0000
  O   O15       1.0  0.99045  0.30192  0.49259  1.0000
  O   O16       1.0  0.69808  0.00955  0.50741  1.0000
  O   O17       1.0  0.00956  0.50741  0.69808  1.0000
  O   O18       1.0  0.50741  0.69808  0.00955  1.0000
  O   O19       1.0  0.72624  0.79877  0.18226  1.0000
  O   O20       1.0  0.18226  0.72624  0.79876  1.0000
  O   O21       1.0  0.79876  0.18226  0.72624  1.0000
  O   O22       1.0  0.81774  0.20124  0.27376  1.0000
  O   O23       1.0  0.20124  0.27376  0.81774  1.0000
  O   O24       1.0  0.27376  0.81774  0.20124  1.0000
