data_image0
_chemical_formula_structural       Ag2H32C44N12O4F6
_chemical_formula_sum              "Ag2 H32 C44 N12 O4 F6"
_cell_length_a       10.0963
_cell_length_b       10.9926
_cell_length_c       11.266
_cell_angle_alpha    64.355
_cell_angle_beta     77.2813
_cell_angle_gamma    72.8702

_space_group_name_H-M_alt    "P 1"
_space_group_IT_number       1

loop_
  _space_group_symop_operation_xyz
  'x, y, z'

loop_
  _atom_site_type_symbol
  _atom_site_label
  _atom_site_symmetry_multiplicity
  _atom_site_fract_x
  _atom_site_fract_y
  _atom_site_fract_z
  _atom_site_occupancy
  Ag  Ag1       1.0  0.51035  0.40972  0.16751  1.0000
  Ag  Ag2       1.0  0.48965  0.59028  0.83249  1.0000
  H   H1        1.0  0.05331  0.04475  0.68107  1.0000
  H   H2        1.0  0.94669  0.95525  0.31893  1.0000
  H   H3        1.0  0.11874  0.36154  0.26180  1.0000
  H   H4        1.0  0.88127  0.63846  0.73820  1.0000
  H   H5        1.0  0.00964  0.25386  0.38063  1.0000
  H   H6        1.0  0.99036  0.74614  0.61936  1.0000
  H   H7        1.0  0.83153  0.35710  0.54100  1.0000
  H   H8        1.0  0.16847  0.64290  0.45900  1.0000
  H   H9        1.0  0.18577  0.52531  0.31056  1.0000
  H   H10       1.0  0.81423  0.47469  0.68944  1.0000
  H   H11       1.0  0.08330  0.62819  0.09550  1.0000
  H   H12       1.0  0.91670  0.37180  0.90450  1.0000
  H   H13       1.0  0.19213  0.91201  0.35693  1.0000
  H   H14       1.0  0.80787  0.08799  0.64307  1.0000
  H   H15       1.0  0.61985  0.70237  0.94168  1.0000
  H   H16       1.0  0.38015  0.29763  0.05832  1.0000
  H   H17       1.0  0.77319  0.86759  0.81897  1.0000
  H   H18       1.0  0.22681  0.13241  0.18103  1.0000
  H   H19       1.0  0.99930  0.83325  0.89428  1.0000
  H   H20       1.0  0.00070  0.16674  0.10572  1.0000
  H   H21       1.0  0.32453  0.00081  0.78266  1.0000
  H   H22       1.0  0.67546  0.99919  0.21733  1.0000
  H   H23       1.0  0.47133  0.43936  0.45012  1.0000
  H   H24       1.0  0.52867  0.56064  0.54988  1.0000
  H   H25       1.0  0.30646  0.89049  0.64563  1.0000
  H   H26       1.0  0.69354  0.10951  0.35437  1.0000
  H   H27       1.0  0.35678  0.89126  0.48431  1.0000
  H   H28       1.0  0.64321  0.10875  0.51569  1.0000
  H   H29       1.0  0.38745  0.15811  0.85602  1.0000
  H   H30       1.0  0.61255  0.84189  0.14398  1.0000
  H   H31       1.0  0.46131  0.37067  0.69575  1.0000
  H   H32       1.0  0.53869  0.62933  0.30425  1.0000
  C   C1        1.0  0.89634  0.55125  0.12985  1.0000
  C   C2        1.0  0.10366  0.44875  0.87015  1.0000
  C   C3        1.0  0.03043  0.02441  0.60197  1.0000
  C   C4        1.0  0.96957  0.97559  0.39803  1.0000
  C   C5        1.0  0.01939  0.36150  0.32538  1.0000
  C   C6        1.0  0.98062  0.63850  0.67462  1.0000
  C   C7        1.0  0.76718  0.57048  0.08779  1.0000
  C   C8        1.0  0.23282  0.42953  0.91221  1.0000
  C   C9        1.0  0.13889  0.97528  0.52115  1.0000
  C   C10       1.0  0.86111  0.02472  0.47884  1.0000
  C   C11       1.0  0.35619  0.13850  0.57443  1.0000
  C   C12       1.0  0.64381  0.86150  0.42557  1.0000
  C   C13       1.0  0.90566  0.41970  0.52294  1.0000
  C   C14       1.0  0.09434  0.58030  0.47706  1.0000
  C   C15       1.0  0.32674  0.72987  0.03661  1.0000
  C   C16       1.0  0.67326  0.27013  0.96340  1.0000
  C   C17       1.0  0.01028  0.43237  0.41653  1.0000
  C   C18       1.0  0.98973  0.56763  0.58346  1.0000
  C   C19       1.0  0.10452  0.51333  0.39387  1.0000
  C   C20       1.0  0.89548  0.48667  0.60613  1.0000
  C   C21       1.0  0.98367  0.64434  0.06247  1.0000
  C   C22       1.0  0.01633  0.35566  0.93753  1.0000
  C   C23       1.0  0.10760  0.95110  0.41937  1.0000
  C   C24       1.0  0.89239  0.04890  0.58063  1.0000
  C   C25       1.0  0.71991  0.68563  0.97472  1.0000
  C   C26       1.0  0.28009  0.31437  0.02528  1.0000
  C   C27       1.0  0.80626  0.77767  0.90762  1.0000
  C   C28       1.0  0.19374  0.22233  0.09238  1.0000
  C   C29       1.0  0.93571  0.75749  0.95066  1.0000
  C   C30       1.0  0.06429  0.24250  0.04933  1.0000
  C   C31       1.0  0.39801  0.26021  0.48119  1.0000
  C   C32       1.0  0.60200  0.73979  0.51881  1.0000
  C   C33       1.0  0.35128  0.09764  0.71130  1.0000
  C   C34       1.0  0.64872  0.90236  0.28870  1.0000
  C   C35       1.0  0.24131  0.85495  0.07306  1.0000
  C   C36       1.0  0.75869  0.14505  0.92694  1.0000
  C   C37       1.0  0.43705  0.34688  0.52264  1.0000
  C   C38       1.0  0.56295  0.65312  0.47736  1.0000
  C   C39       1.0  0.28879  0.95000  0.54101  1.0000
  C   C40       1.0  0.71121  0.05000  0.45899  1.0000
  C   C41       1.0  0.38911  0.18499  0.75067  1.0000
  C   C42       1.0  0.61089  0.81501  0.24933  1.0000
  C   C43       1.0  0.43166  0.30736  0.65807  1.0000
  C   C44       1.0  0.56834  0.69264  0.34193  1.0000
  N   N1        1.0  0.90760  0.42946  0.23924  1.0000
  N   N2        1.0  0.09240  0.57053  0.76076  1.0000
  N   N3        1.0  0.70958  0.46048  0.17487  1.0000
  N   N4        1.0  0.29042  0.53952  0.82513  1.0000
  N   N5        1.0  0.33398  0.07887  0.49820  1.0000
  N   N6        1.0  0.66601  0.92113  0.50180  1.0000
  N   N7        1.0  0.39824  0.26567  0.35655  1.0000
  N   N8        1.0  0.60176  0.73434  0.64345  1.0000
  N   N9        1.0  0.79455  0.37662  0.26533  1.0000
  N   N10       1.0  0.20546  0.62338  0.73467  1.0000
  N   N11       1.0  0.35961  0.15668  0.36780  1.0000
  N   N12       1.0  0.64039  0.84333  0.63220  1.0000
  O   O1        1.0  0.32976  0.61167  0.12815  1.0000
  O   O2        1.0  0.67024  0.38833  0.87186  1.0000
  O   O3        1.0  0.38376  0.76566  0.91921  1.0000
  O   O4        1.0  0.61624  0.23433  0.08080  1.0000
  F   F1        1.0  0.32969  0.92713  0.07596  1.0000
  F   F2        1.0  0.67031  0.07287  0.92404  1.0000
  F   F3        1.0  0.15106  0.94529  0.98215  1.0000
  F   F4        1.0  0.84894  0.05470  0.01785  1.0000
  F   F5        1.0  0.16432  0.81762  0.19356  1.0000
  F   F6        1.0  0.83568  0.18238  0.80644  1.0000
