data_image0
_chemical_formula_structural       Ag2H32C40N14O6
_chemical_formula_sum              "Ag2 H32 C40 N14 O6"
_cell_length_a       8.30739
_cell_length_b       10.7775
_cell_length_c       11.3373
_cell_angle_alpha    84.6379
_cell_angle_beta     68.7651
_cell_angle_gamma    73.8622

_space_group_name_H-M_alt    "P 1"
_space_group_IT_number       1

loop_
  _space_group_symop_operation_xyz
  'x, y, z'

loop_
  _atom_site_type_symbol
  _atom_site_label
  _atom_site_symmetry_multiplicity
  _atom_site_fract_x
  _atom_site_fract_y
  _atom_site_fract_z
  _atom_site_occupancy
  Ag  Ag1       1.0  0.07985  0.48193  0.30729  1.0000
  Ag  Ag2       1.0  0.92015  0.51806  0.69271  1.0000
  H   H1        1.0  0.22416  0.38524  0.78621  1.0000
  H   H2        1.0  0.77584  0.61476  0.21379  1.0000
  H   H3        1.0  0.98326  0.17869  0.10045  1.0000
  H   H4        1.0  0.01674  0.82131  0.89955  1.0000
  H   H5        1.0  0.48747  0.90464  0.76134  1.0000
  H   H6        1.0  0.51253  0.09536  0.23866  1.0000
  H   H7        1.0  0.71530  0.38672  0.55983  1.0000
  H   H8        1.0  0.28470  0.61328  0.44017  1.0000
  H   H9        1.0  0.11363  0.90447  0.23218  1.0000
  H   H10       1.0  0.88637  0.09553  0.76782  1.0000
  H   H11       1.0  0.31617  0.94166  0.20831  1.0000
  H   H12       1.0  0.68383  0.05834  0.79169  1.0000
  H   H13       1.0  0.57854  0.02201  0.59117  1.0000
  H   H14       1.0  0.42146  0.97799  0.40883  1.0000
  H   H15       1.0  0.03289  0.23525  0.87524  1.0000
  H   H16       1.0  0.96711  0.76475  0.12476  1.0000
  H   H17       1.0  0.28699  0.10320  0.70612  1.0000
  H   H18       1.0  0.71301  0.89680  0.29388  1.0000
  H   H19       1.0  0.59392  0.77859  0.90828  1.0000
  H   H20       1.0  0.40608  0.22140  0.09172  1.0000
  H   H21       1.0  0.50583  0.81446  0.07260  1.0000
  H   H22       1.0  0.49417  0.18554  0.92740  1.0000
  H   H23       1.0  0.85129  0.92699  0.41341  1.0000
  H   H24       1.0  0.14871  0.07301  0.58659  1.0000
  H   H25       1.0  0.48078  0.69346  0.73845  1.0000
  H   H26       1.0  0.51922  0.30654  0.26155  1.0000
  H   H27       1.0  0.51123  0.24639  0.66671  1.0000
  H   H28       1.0  0.48877  0.75361  0.33329  1.0000
  H   H29       1.0  0.38778  0.53585  0.65036  1.0000
  H   H30       1.0  0.61222  0.46415  0.34964  1.0000
  H   H31       1.0  0.14332  0.38754  0.02170  1.0000
  H   H32       1.0  0.85668  0.61246  0.97830  1.0000
  C   C1        1.0  0.25992  0.45401  0.83047  1.0000
  C   C2        1.0  0.74008  0.54599  0.16953  1.0000
  C   C3        1.0  0.09512  0.11856  0.02648  1.0000
  C   C4        1.0  0.90488  0.88143  0.97352  1.0000
  C   C5        1.0  0.35604  0.63170  0.93344  1.0000
  C   C6        1.0  0.64396  0.36830  0.06656  1.0000
  C   C7        1.0  0.37714  0.96565  0.83570  1.0000
  C   C8        1.0  0.62286  0.03435  0.16430  1.0000
  C   C9        1.0  0.74300  0.28886  0.52689  1.0000
  C   C10       1.0  0.25700  0.71114  0.47311  1.0000
  C   C11       1.0  0.26123  0.54650  0.01217  1.0000
  C   C12       1.0  0.73877  0.45350  0.98783  1.0000
  C   C13       1.0  0.18578  0.97942  0.19653  1.0000
  C   C14       1.0  0.81422  0.02058  0.80347  1.0000
  C   C15       1.0  0.20986  0.01058  0.05927  1.0000
  C   C16       1.0  0.79014  0.98941  0.94073  1.0000
  C   C17       1.0  0.66944  0.08139  0.54323  1.0000
  C   C18       1.0  0.33056  0.91861  0.45677  1.0000
  C   C19       1.0  0.89491  0.23657  0.42159  1.0000
  C   C20       1.0  0.10509  0.76343  0.57841  1.0000
  C   C21       1.0  0.93119  0.10835  0.38095  1.0000
  C   C22       1.0  0.06881  0.89165  0.61905  1.0000
  C   C23       1.0  0.12232  0.15087  0.90012  1.0000
  C   C24       1.0  0.87768  0.84913  0.09988  1.0000
  C   C25       1.0  0.26550  0.07565  0.80432  1.0000
  C   C26       1.0  0.73450  0.92435  0.19568  1.0000
  C   C27       1.0  0.46949  0.80730  0.99006  1.0000
  C   C28       1.0  0.53052  0.19270  0.00994  1.0000
  C   C29       1.0  0.82091  0.02713  0.44185  1.0000
  C   C30       1.0  0.17909  0.97287  0.55815  1.0000
  C   C31       1.0  0.35032  0.93161  0.96239  1.0000
  C   C32       1.0  0.64968  0.06839  0.03761  1.0000
  C   C33       1.0  0.40480  0.63050  0.80125  1.0000
  C   C34       1.0  0.59520  0.36950  0.19875  1.0000
  C   C35       1.0  0.63150  0.20949  0.58532  1.0000
  C   C36       1.0  0.36850  0.79051  0.41468  1.0000
  C   C37       1.0  0.35353  0.54056  0.75242  1.0000
  C   C38       1.0  0.64646  0.45945  0.24758  1.0000
  C   C39       1.0  0.21332  0.45467  0.96095  1.0000
  C   C40       1.0  0.78667  0.54533  0.03905  1.0000
  N   N1        1.0  0.03076  0.28721  0.34141  1.0000
  N   N2        1.0  0.96924  0.71279  0.65859  1.0000
  N   N3        1.0  0.08715  0.09130  0.27919  1.0000
  N   N4        1.0  0.91285  0.90870  0.72081  1.0000
  N   N5        1.0  0.38180  0.70216  0.01668  1.0000
  N   N6        1.0  0.61820  0.29784  0.98332  1.0000
  N   N7        1.0  0.23244  0.31071  0.51848  1.0000
  N   N8        1.0  0.76756  0.68929  0.48152  1.0000
  N   N9        1.0  0.14514  0.19927  0.25713  1.0000
  N   N10       1.0  0.85486  0.80073  0.74287  1.0000
  N   N11       1.0  0.30698  0.66632  0.13724  1.0000
  N   N12       1.0  0.69302  0.33368  0.86276  1.0000
  N   N13       1.0  0.23465  0.57286  0.13567  1.0000
  N   N14       1.0  0.76535  0.42714  0.86433  1.0000
  O   O1        1.0  0.22269  0.42811  0.48342  1.0000
  O   O2        1.0  0.77731  0.57189  0.51658  1.0000
  O   O3        1.0  0.34974  0.21947  0.45101  1.0000
  O   O4        1.0  0.65026  0.78053  0.54899  1.0000
  O   O5        1.0  0.11876  0.28854  0.62424  1.0000
  O   O6        1.0  0.88124  0.71146  0.37576  1.0000
