data_image0
_chemical_formula_structural       FeCuH18C30S2N2O4F12
_chemical_formula_sum              "Fe1 Cu1 H18 C30 S2 N2 O4 F12"
_cell_length_a       8.39639
_cell_length_b       10.1725
_cell_length_c       10.6653
_cell_angle_alpha    93.114
_cell_angle_beta     112.706
_cell_angle_gamma    101.003

_space_group_name_H-M_alt    "P 1"
_space_group_IT_number       1

loop_
  _space_group_symop_operation_xyz
  'x, y, z'

loop_
  _atom_site_type_symbol
  _atom_site_label
  _atom_site_symmetry_multiplicity
  _atom_site_fract_x
  _atom_site_fract_y
  _atom_site_fract_z
  _atom_site_occupancy
  Fe  Fe1       1.0  0.50000  0.50000  0.50000  1.0000
  Cu  Cu1       1.0  1.00000  0.00000  0.00000  1.0000
  H   H1        1.0  0.15900  0.03948  0.30227  1.0000
  H   H2        1.0  0.84100  0.96052  0.69773  1.0000
  H   H3        1.0  0.11069  0.92824  0.48974  1.0000
  H   H4        1.0  0.88931  0.07175  0.51026  1.0000
  H   H5        1.0  0.68450  0.62766  0.17830  1.0000
  H   H6        1.0  0.31551  0.37234  0.82171  1.0000
  H   H7        1.0  0.75629  0.74833  0.00363  1.0000
  H   H8        1.0  0.24370  0.25167  0.99637  1.0000
  H   H9        1.0  0.47458  0.75303  0.41301  1.0000
  H   H10       1.0  0.52542  0.24697  0.58699  1.0000
  H   H11       1.0  0.18951  0.54111  0.29110  1.0000
  H   H12       1.0  0.81049  0.45888  0.70890  1.0000
  H   H13       1.0  0.30787  0.32017  0.25247  1.0000
  H   H14       1.0  0.69214  0.67983  0.74753  1.0000
  H   H15       1.0  0.66875  0.39441  0.35037  1.0000
  H   H16       1.0  0.33126  0.60558  0.64963  1.0000
  H   H17       1.0  0.53063  0.19081  0.87609  1.0000
  H   H18       1.0  0.46937  0.80919  0.12390  1.0000
  C   C1        1.0  0.05805  0.94631  0.27938  1.0000
  C   C2        1.0  0.94195  0.05369  0.72063  1.0000
  C   C3        1.0  0.03022  0.88375  0.38356  1.0000
  C   C4        1.0  0.96978  0.11625  0.61644  1.0000
  C   C5        1.0  0.89202  0.76794  0.35025  1.0000
  C   C6        1.0  0.10798  0.23206  0.64975  1.0000
  C   C7        1.0  0.79233  0.71750  0.21071  1.0000
  C   C8        1.0  0.20767  0.28249  0.78929  1.0000
  C   C9        1.0  0.83139  0.78464  0.11268  1.0000
  C   C10       1.0  0.16861  0.21536  0.88733  1.0000
  C   C11       1.0  0.63370  0.60167  0.39998  1.0000
  C   C12       1.0  0.36630  0.39833  0.60003  1.0000
  C   C13       1.0  0.47640  0.65054  0.38043  1.0000
  C   C14       1.0  0.52360  0.34946  0.61958  1.0000
  C   C15       1.0  0.32710  0.53884  0.31641  1.0000
  C   C16       1.0  0.67290  0.46116  0.68359  1.0000
  C   C17       1.0  0.39034  0.42131  0.29604  1.0000
  C   C18       1.0  0.60966  0.57868  0.70395  1.0000
  C   C19       1.0  0.57959  0.45943  0.34766  1.0000
  C   C20       1.0  0.42042  0.54057  0.65234  1.0000
  C   C21       1.0  0.78112  0.36475  0.07903  1.0000
  C   C22       1.0  0.21888  0.63526  0.92097  1.0000
  C   C23       1.0  0.79649  0.22253  0.03007  1.0000
  C   C24       1.0  0.20350  0.77747  0.96994  1.0000
  C   C25       1.0  0.64458  0.14610  0.91706  1.0000
  C   C26       1.0  0.35542  0.85390  0.08293  1.0000
  C   C27       1.0  0.63010  0.01847  0.85441  1.0000
  C   C28       1.0  0.36990  0.98153  0.14559  1.0000
  C   C29       1.0  0.45554  0.95317  0.73073  1.0000
  C   C30       1.0  0.54447  0.04684  0.26927  1.0000
  S   S1        1.0  0.85203  0.69829  0.48498  1.0000
  S   S2        1.0  0.14797  0.30171  0.51503  1.0000
  N   N1        1.0  0.96053  0.89822  0.14539  1.0000
  N   N2        1.0  0.03947  0.10178  0.85462  1.0000
  O   O1        1.0  0.94207  0.19357  0.09286  1.0000
  O   O2        1.0  0.05792  0.80643  0.90715  1.0000
  O   O3        1.0  0.73972  0.94201  0.88034  1.0000
  O   O4        1.0  0.26027  0.05799  0.11966  1.0000
  F   F1        1.0  0.87756  0.40147  0.21615  1.0000
  F   F2        1.0  0.12244  0.59853  0.78385  1.0000
  F   F3        1.0  0.61045  0.37259  0.05310  1.0000
  F   F4        1.0  0.38955  0.62741  0.94690  1.0000
  F   F5        1.0  0.84395  0.46004  0.01398  1.0000
  F   F6        1.0  0.15604  0.53995  0.98601  1.0000
  F   F7        1.0  0.33415  0.03116  0.69827  1.0000
  F   F8        1.0  0.66585  0.96884  0.30173  1.0000
  F   F9        1.0  0.48680  0.92737  0.61610  1.0000
  F   F10       1.0  0.51320  0.07264  0.38390  1.0000
  F   F11       1.0  0.37605  0.83273  0.75400  1.0000
  F   F12       1.0  0.62395  0.16728  0.24599  1.0000
