data_image0
_chemical_formula_structural       ZnFeH18C30S2N2O4F12
_chemical_formula_sum              "Zn1 Fe1 H18 C30 S2 N2 O4 F12"
_cell_length_a       8.36465
_cell_length_b       10.1487
_cell_length_c       10.6748
_cell_angle_alpha    94.5043
_cell_angle_beta     112.182
_cell_angle_gamma    98.7564

_space_group_name_H-M_alt    "P 1"
_space_group_IT_number       1

loop_
  _space_group_symop_operation_xyz
  'x, y, z'

loop_
  _atom_site_type_symbol
  _atom_site_label
  _atom_site_symmetry_multiplicity
  _atom_site_fract_x
  _atom_site_fract_y
  _atom_site_fract_z
  _atom_site_occupancy
  Zn  Zn1       1.0  0.50000  0.50000  0.50000  1.0000
  Fe  Fe1       1.0  1.00000  0.00000  1.00000  1.0000
  H   H1        1.0  0.65651  0.52545  0.81188  1.0000
  H   H2        1.0  0.34349  0.47454  0.18812  1.0000
  H   H3        1.0  0.60410  0.41189  0.99431  1.0000
  H   H4        1.0  0.39590  0.58811  0.00568  1.0000
  H   H5        1.0  0.18231  0.12538  0.67632  1.0000
  H   H6        1.0  0.81769  0.87462  0.32368  1.0000
  H   H7        1.0  0.25568  0.24840  0.50666  1.0000
  H   H8        1.0  0.74433  0.75159  0.49334  1.0000
  H   H9        1.0  0.16813  0.88547  0.84853  1.0000
  H   H10       1.0  0.83186  0.11453  0.15147  1.0000
  H   H11       1.0  0.81110  0.81801  0.75453  1.0000
  H   H12       1.0  0.18890  0.18199  0.24547  1.0000
  H   H13       1.0  0.68967  0.04361  0.79322  1.0000
  H   H14       1.0  0.31033  0.95639  0.20679  1.0000
  H   H15       1.0  0.97041  0.25087  0.91186  1.0000
  H   H16       1.0  0.02959  0.74913  0.08814  1.0000
  H   H17       1.0  0.97275  0.30880  0.63172  1.0000
  H   H18       1.0  0.02724  0.69120  0.36827  1.0000
  C   C1        1.0  0.55511  0.43472  0.78591  1.0000
  C   C2        1.0  0.44489  0.56528  0.21409  1.0000
  C   C3        1.0  0.52577  0.37091  0.88746  1.0000
  C   C4        1.0  0.47422  0.62909  0.11254  1.0000
  C   C5        1.0  0.38784  0.25841  0.85078  1.0000
  C   C6        1.0  0.61216  0.74158  0.14921  1.0000
  C   C7        1.0  0.28970  0.21265  0.71086  1.0000
  C   C8        1.0  0.71030  0.78735  0.28913  1.0000
  C   C9        1.0  0.33009  0.28147  0.61595  1.0000
  C   C10       1.0  0.66992  0.71853  0.38405  1.0000
  C   C11       1.0  0.13075  0.09522  0.89769  1.0000
  C   C12       1.0  0.86925  0.90478  0.10231  1.0000
  C   C13       1.0  0.07871  0.95295  0.84653  1.0000
  C   C14       1.0  0.92129  0.04705  0.15346  1.0000
  C   C15       1.0  0.89099  0.91844  0.79684  1.0000
  C   C16       1.0  0.10901  0.08155  0.20316  1.0000
  C   C17       1.0  0.82658  0.03817  0.81738  1.0000
  C   C18       1.0  0.17342  0.96183  0.18263  1.0000
  C   C19       1.0  0.97368  0.14762  0.87971  1.0000
  C   C20       1.0  0.02632  0.85238  0.12029  1.0000
  C   C21       1.0  0.71932  0.14641  0.42369  1.0000
  C   C22       1.0  0.28068  0.85359  0.57631  1.0000
  C   C23       1.0  0.71149  0.28998  0.47958  1.0000
  C   C24       1.0  0.28850  0.71002  0.52042  1.0000
  C   C25       1.0  0.86198  0.35912  0.59281  1.0000
  C   C26       1.0  0.13802  0.64089  0.40719  1.0000
  C   C27       1.0  0.87757  0.48798  0.65863  1.0000
  C   C28       1.0  0.12242  0.51203  0.34137  1.0000
  C   C29       1.0  0.05118  0.54698  0.78295  1.0000
  C   C30       1.0  0.94882  0.45302  0.21705  1.0000
  S   S1        1.0  0.34682  0.18750  0.98268  1.0000
  S   S2        1.0  0.65317  0.81250  0.01732  1.0000
  N   N1        1.0  0.45903  0.39191  0.65130  1.0000
  N   N2        1.0  0.54098  0.60809  0.34870  1.0000
  O   O1        1.0  0.56704  0.32545  0.41963  1.0000
  O   O2        1.0  0.43296  0.67454  0.58037  1.0000
  O   O3        1.0  0.76976  0.56719  0.63183  1.0000
  O   O4        1.0  0.23024  0.43281  0.36818  1.0000
  F   F1        1.0  0.62454  0.11594  0.28670  1.0000
  F   F2        1.0  0.37546  0.88406  0.71330  1.0000
  F   F3        1.0  0.65036  0.05303  0.48428  1.0000
  F   F4        1.0  0.34964  0.94697  0.51572  1.0000
  F   F5        1.0  0.88703  0.12910  0.44809  1.0000
  F   F6        1.0  0.11297  0.87090  0.55192  1.0000
  F   F7        1.0  0.15448  0.64479  0.75059  1.0000
  F   F8        1.0  0.84553  0.35520  0.24941  1.0000
  F   F9        1.0  0.15033  0.45339  0.83270  1.0000
  F   F10       1.0  0.84965  0.54661  0.16729  1.0000
  F   F11       1.0  0.01858  0.60504  0.88812  1.0000
  F   F12       1.0  0.98143  0.39497  0.11189  1.0000
