data_image0
_chemical_formula_structural       MnFeH18C30S2N2O4F12
_chemical_formula_sum              "Mn1 Fe1 H18 C30 S2 N2 O4 F12"
_cell_length_a       8.49082
_cell_length_b       10.168
_cell_length_c       10.6828
_cell_angle_alpha    95.4293
_cell_angle_beta     112.477
_cell_angle_gamma    98.5286

_space_group_name_H-M_alt    "P 1"
_space_group_IT_number       1

loop_
  _space_group_symop_operation_xyz
  'x, y, z'

loop_
  _atom_site_type_symbol
  _atom_site_label
  _atom_site_symmetry_multiplicity
  _atom_site_fract_x
  _atom_site_fract_y
  _atom_site_fract_z
  _atom_site_occupancy
  Mn  Mn1       1.0  0.50000  0.50000  0.00000  1.0000
  Fe  Fe1       1.0  0.00000  1.00000  0.50000  1.0000
  H   H1        1.0  0.66246  0.51213  0.32046  1.0000
  H   H2        1.0  0.33753  0.48787  0.67954  1.0000
  H   H3        1.0  0.60464  0.40328  0.50093  1.0000
  H   H4        1.0  0.39535  0.59671  0.49907  1.0000
  H   H5        1.0  0.17283  0.12668  0.17746  1.0000
  H   H6        1.0  0.82716  0.87331  0.82254  1.0000
  H   H7        1.0  0.24994  0.24543  0.00986  1.0000
  H   H8        1.0  0.75006  0.75457  0.99014  1.0000
  H   H9        1.0  0.16441  0.88395  0.34782  1.0000
  H   H10       1.0  0.83559  0.11604  0.65217  1.0000
  H   H11       1.0  0.81180  0.81567  0.25260  1.0000
  H   H12       1.0  0.18819  0.18433  0.74739  1.0000
  H   H13       1.0  0.69229  0.04139  0.29233  1.0000
  H   H14       1.0  0.30771  0.95861  0.70767  1.0000
  H   H15       1.0  0.97006  0.24959  0.41348  1.0000
  H   H16       1.0  0.02994  0.75040  0.58652  1.0000
  H   H17       1.0  0.02826  0.69358  0.87038  1.0000
  H   H18       1.0  0.97174  0.30642  0.12963  1.0000
  C   C1        1.0  0.55698  0.42472  0.29247  1.0000
  C   C2        1.0  0.44302  0.57528  0.70753  1.0000
  C   C3        1.0  0.52482  0.36370  0.39319  1.0000
  C   C4        1.0  0.47518  0.63630  0.60681  1.0000
  C   C5        1.0  0.38319  0.25515  0.35450  1.0000
  C   C6        1.0  0.61681  0.74485  0.64550  1.0000
  C   C7        1.0  0.28320  0.21098  0.21364  1.0000
  C   C8        1.0  0.71680  0.78902  0.78636  1.0000
  C   C9        1.0  0.32631  0.27733  0.11993  1.0000
  C   C10       1.0  0.67368  0.72267  0.88007  1.0000
  C   C11       1.0  0.12780  0.09400  0.39831  1.0000
  C   C12       1.0  0.87220  0.90600  0.60169  1.0000
  C   C13       1.0  0.07626  0.95139  0.34593  1.0000
  C   C14       1.0  0.92374  0.04860  0.65407  1.0000
  C   C15       1.0  0.89081  0.91641  0.29565  1.0000
  C   C16       1.0  0.10918  0.08358  0.70435  1.0000
  C   C17       1.0  0.82747  0.03626  0.31683  1.0000
  C   C18       1.0  0.17253  0.96374  0.68317  1.0000
  C   C19       1.0  0.97287  0.14621  0.38026  1.0000
  C   C20       1.0  0.02713  0.85378  0.61974  1.0000
  C   C21       1.0  0.28497  0.85705  0.08018  1.0000
  C   C22       1.0  0.71504  0.14296  0.91982  1.0000
  C   C23       1.0  0.28694  0.71158  0.02373  1.0000
  C   C24       1.0  0.71306  0.28843  0.97628  1.0000
  C   C25       1.0  0.13683  0.64284  0.90976  1.0000
  C   C26       1.0  0.86316  0.35716  0.09025  1.0000
  C   C27       1.0  0.12219  0.51399  0.84262  1.0000
  C   C28       1.0  0.87782  0.48601  0.15739  1.0000
  C   C29       1.0  0.95272  0.45377  0.71601  1.0000
  C   C30       1.0  0.04728  0.54624  0.28399  1.0000
  S   S1        1.0  0.34124  0.18669  0.48551  1.0000
  S   S2        1.0  0.65876  0.81330  0.51449  1.0000
  N   N1        1.0  0.45985  0.38354  0.15683  1.0000
  N   N2        1.0  0.54014  0.61645  0.84317  1.0000
  O   O1        1.0  0.42734  0.67257  0.08343  1.0000
  O   O2        1.0  0.57266  0.32743  0.91658  1.0000
  O   O3        1.0  0.23041  0.43596  0.87127  1.0000
  O   O4        1.0  0.76959  0.56404  0.12875  1.0000
  F   F1        1.0  0.12044  0.87842  0.05260  1.0000
  F   F2        1.0  0.87957  0.12159  0.94741  1.0000
  F   F3        1.0  0.35915  0.94771  0.02238  1.0000
  F   F4        1.0  0.64085  0.05229  0.97761  1.0000
  F   F5        1.0  0.37620  0.88760  0.21828  1.0000
  F   F6        1.0  0.62381  0.11241  0.78172  1.0000
  F   F7        1.0  0.85044  0.54490  0.66932  1.0000
  F   F8        1.0  0.14958  0.45510  0.33068  1.0000
  F   F9        1.0  0.85421  0.35166  0.74485  1.0000
  F   F10       1.0  0.14579  0.64835  0.25514  1.0000
  F   F11       1.0  0.98704  0.40051  0.60939  1.0000
  F   F12       1.0  0.01298  0.59951  0.39062  1.0000
