data_image0
_chemical_formula_structural       Zn2H32C48N8O8
_chemical_formula_sum              "Zn2 H32 C48 N8 O8"
_cell_length_a       7.37272
_cell_length_b       17.0362
_cell_length_c       18.5153
_cell_angle_alpha    62.6119
_cell_angle_beta     88.2483
_cell_angle_gamma    86.2104

_space_group_name_H-M_alt    "P 1"
_space_group_IT_number       1

loop_
  _space_group_symop_operation_xyz
  'x, y, z'

loop_
  _atom_site_type_symbol
  _atom_site_label
  _atom_site_symmetry_multiplicity
  _atom_site_fract_x
  _atom_site_fract_y
  _atom_site_fract_z
  _atom_site_occupancy
  Zn  Zn1       1.0  0.24974  0.09164  0.81656  1.0000
  Zn  Zn2       1.0  0.75026  0.90836  0.18344  1.0000
  H   H1        1.0  0.66980  0.20163  0.73677  1.0000
  H   H2        1.0  0.83070  0.06187  0.73674  1.0000
  H   H3        1.0  0.33020  0.79837  0.26323  1.0000
  H   H4        1.0  0.16930  0.93813  0.26326  1.0000
  H   H5        1.0  0.42988  0.31254  0.65065  1.0000
  H   H6        1.0  0.07030  0.03720  0.65042  1.0000
  H   H7        1.0  0.57012  0.68746  0.34935  1.0000
  H   H8        1.0  0.92970  0.96279  0.34958  1.0000
  H   H9        1.0  0.83840  0.49653  0.52075  1.0000
  H   H10       1.0  0.66123  0.98334  0.52061  1.0000
  H   H11       1.0  0.16160  0.50347  0.47925  1.0000
  H   H12       1.0  0.33877  0.01666  0.47939  1.0000
  H   H13       1.0  0.07993  0.38701  0.61161  1.0000
  H   H14       1.0  0.42008  0.00182  0.61171  1.0000
  H   H15       1.0  0.92007  0.61299  0.38839  1.0000
  H   H16       1.0  0.57992  0.99818  0.38829  1.0000
  H   H17       1.0  0.29328  0.99630  0.12118  1.0000
  H   H18       1.0  0.20713  0.88218  0.12117  1.0000
  H   H19       1.0  0.70671  0.00370  0.87882  1.0000
  H   H20       1.0  0.79287  0.11782  0.87882  1.0000
  H   H21       1.0  0.38037  0.13895  0.10995  1.0000
  H   H22       1.0  0.11965  0.75076  0.10999  1.0000
  H   H23       1.0  0.61963  0.86105  0.89005  1.0000
  H   H24       1.0  0.88035  0.24924  0.89001  1.0000
  H   H25       1.0  0.41632  0.26840  0.97080  1.0000
  H   H26       1.0  0.08353  0.76052  0.97080  1.0000
  H   H27       1.0  0.58368  0.73160  0.02920  1.0000
  H   H28       1.0  0.91646  0.23948  0.02919  1.0000
  H   H29       1.0  0.35782  0.24621  0.84769  1.0000
  H   H30       1.0  0.14198  0.90577  0.84770  1.0000
  H   H31       1.0  0.64218  0.75379  0.15231  1.0000
  H   H32       1.0  0.85802  0.09423  0.15230  1.0000
  C   C1        1.0  0.03404  0.22217  0.73122  1.0000
  C   C2        1.0  0.46637  0.04694  0.73133  1.0000
  C   C3        1.0  0.96596  0.77783  0.26878  1.0000
  C   C4        1.0  0.53363  0.95306  0.26867  1.0000
  C   C5        1.0  0.88963  0.28801  0.68005  1.0000
  C   C6        1.0  0.61065  0.03228  0.68009  1.0000
  C   C7        1.0  0.11038  0.71199  0.31995  1.0000
  C   C8        1.0  0.38935  0.96772  0.31991  1.0000
  C   C9        1.0  0.70678  0.26688  0.69103  1.0000
  C   C10       1.0  0.79351  0.04244  0.69098  1.0000
  C   C11       1.0  0.29322  0.73312  0.30897  1.0000
  C   C12       1.0  0.20649  0.95756  0.30902  1.0000
  C   C13       1.0  0.57260  0.32809  0.64200  1.0000
  C   C14       1.0  0.92752  0.03032  0.64183  1.0000
  C   C15       1.0  0.42740  0.67191  0.35800  1.0000
  C   C16       1.0  0.07248  0.96968  0.35818  1.0000
  C   C17       1.0  0.62121  0.41018  0.57980  1.0000
  C   C18       1.0  0.87876  0.01043  0.57964  1.0000
  C   C19       1.0  0.37879  0.58982  0.42019  1.0000
  C   C20       1.0  0.12124  0.98957  0.42036  1.0000
  C   C21       1.0  0.80463  0.43197  0.56877  1.0000
  C   C22       1.0  0.69524  0.99975  0.56869  1.0000
  C   C23       1.0  0.19537  0.56803  0.43123  1.0000
  C   C24       1.0  0.30476  0.00025  0.43131  1.0000
  C   C25       1.0  0.93721  0.37150  0.61899  1.0000
  C   C26       1.0  0.56284  0.00994  0.61901  1.0000
  C   C27       1.0  0.06279  0.62850  0.38101  1.0000
  C   C28       1.0  0.43716  0.99006  0.38099  1.0000
  C   C29       1.0  0.27647  0.04612  0.99010  1.0000
  C   C30       1.0  0.22356  0.96348  0.99009  1.0000
  C   C31       1.0  0.72354  0.95388  0.00990  1.0000
  C   C32       1.0  0.77644  0.03652  0.00991  1.0000
  C   C33       1.0  0.30475  0.05282  0.06134  1.0000
  C   C34       1.0  0.19538  0.88551  0.06134  1.0000
  C   C35       1.0  0.69525  0.94718  0.93866  1.0000
  C   C36       1.0  0.80462  0.11449  0.93866  1.0000
  C   C37       1.0  0.35585  0.13319  0.05484  1.0000
  C   C38       1.0  0.14416  0.81164  0.05487  1.0000
  C   C39       1.0  0.64415  0.86681  0.94516  1.0000
  C   C40       1.0  0.85584  0.18836  0.94513  1.0000
  C   C41       1.0  0.37598  0.20478  0.97812  1.0000
  C   C42       1.0  0.12396  0.81679  0.97814  1.0000
  C   C43       1.0  0.62402  0.79522  0.02188  1.0000
  C   C44       1.0  0.87604  0.18321  0.02185  1.0000
  C   C45       1.0  0.34505  0.19325  0.90972  1.0000
  C   C46       1.0  0.15479  0.89669  0.90972  1.0000
  C   C47       1.0  0.65495  0.80675  0.09028  1.0000
  C   C48       1.0  0.84521  0.10331  0.09028  1.0000
  N   N1        1.0  0.29743  0.11589  0.91607  1.0000
  N   N2        1.0  0.20240  0.96774  0.91605  1.0000
  N   N3        1.0  0.70257  0.88411  0.08393  1.0000
  N   N4        1.0  0.79760  0.03227  0.08395  1.0000
  N   N5        1.0  0.47588  0.46663  0.53191  1.0000
  N   N6        1.0  0.02409  0.00180  0.53175  1.0000
  N   N7        1.0  0.52412  0.53337  0.46809  1.0000
  N   N8        1.0  0.97590  0.99819  0.46825  1.0000
  O   O1        1.0  0.19693  0.24309  0.72824  1.0000
  O   O2        1.0  0.30345  0.02889  0.72845  1.0000
  O   O3        1.0  0.80307  0.75691  0.27176  1.0000
  O   O4        1.0  0.69655  0.97111  0.27155  1.0000
  O   O5        1.0  0.98997  0.14194  0.77882  1.0000
  O   O6        1.0  0.51038  0.07957  0.77893  1.0000
  O   O7        1.0  0.01004  0.85806  0.22117  1.0000
  O   O8        1.0  0.48963  0.92043  0.22107  1.0000
