data_image0
_chemical_formula_structural       Ag4P4H26C28N2O10
_chemical_formula_sum              "Ag4 P4 H26 C28 N2 O10"
_cell_length_a       5.7939
_cell_length_b       10.9912
_cell_length_c       13.0772
_cell_angle_alpha    83.6302
_cell_angle_beta     84.7701
_cell_angle_gamma    86.9204

_space_group_name_H-M_alt    "P 1"
_space_group_IT_number       1

loop_
  _space_group_symop_operation_xyz
  'x, y, z'

loop_
  _atom_site_type_symbol
  _atom_site_label
  _atom_site_symmetry_multiplicity
  _atom_site_fract_x
  _atom_site_fract_y
  _atom_site_fract_z
  _atom_site_occupancy
  Ag  Ag1       1.0  0.18167  0.46440  0.42236  1.0000
  Ag  Ag2       1.0  0.81831  0.53561  0.57763  1.0000
  Ag  Ag3       1.0  0.26478  0.70391  0.47188  1.0000
  Ag  Ag4       1.0  0.73519  0.29608  0.52813  1.0000
  P   P1        1.0  0.20484  0.33934  0.66724  1.0000
  P   P2        1.0  0.79513  0.66067  0.33275  1.0000
  P   P3        1.0  0.30206  0.58618  0.72188  1.0000
  P   P4        1.0  0.69792  0.41382  0.27812  1.0000
  H   H1        1.0  0.60344  0.25967  0.78643  1.0000
  H   H2        1.0  0.39654  0.74034  0.21356  1.0000
  H   H3        1.0  0.70716  0.06062  0.88449  1.0000
  H   H4        1.0  0.29283  0.93941  0.11551  1.0000
  H   H5        1.0  0.46041  0.88108  0.88308  1.0000
  H   H6        1.0  0.53961  0.11894  0.11692  1.0000
  H   H7        1.0  0.11030  0.90251  0.78638  1.0000
  H   H8        1.0  0.88973  0.09749  0.21362  1.0000
  H   H9        1.0  0.99775  0.10425  0.69328  1.0000
  H   H10       1.0  0.00225  0.89575  0.30672  1.0000
  H   H11       1.0  0.84614  0.68738  0.79623  1.0000
  H   H12       1.0  0.15385  0.31262  0.20378  1.0000
  H   H13       1.0  0.70191  0.75699  0.96706  1.0000
  H   H14       1.0  0.29809  0.24300  0.03296  1.0000
  H   H15       1.0  0.95047  0.72756  0.11272  1.0000
  H   H16       1.0  0.04956  0.27242  0.88729  1.0000
  H   H17       1.0  0.49912  0.57056  0.91742  1.0000
  H   H18       1.0  0.50088  0.42943  0.08257  1.0000
  H   H19       1.0  0.34597  0.62910  0.08992  1.0000
  H   H20       1.0  0.65405  0.37089  0.91008  1.0000
  H   H21       1.0  0.29250  0.19038  0.46798  1.0000
  H   H22       1.0  0.70750  0.80962  0.53202  1.0000
  H   H23       1.0  0.09169  0.17447  0.37542  1.0000
  H   H24       1.0  0.90832  0.82552  0.62458  1.0000
  H   H25       1.0  0.39671  0.16398  0.34004  1.0000
  H   H26       1.0  0.60328  0.83602  0.65996  1.0000
  C   C1        1.0  0.29237  0.19491  0.73462  1.0000
  C   C2        1.0  0.70764  0.80510  0.26538  1.0000
  C   C3        1.0  0.49371  0.18202  0.78771  1.0000
  C   C4        1.0  0.50629  0.81800  0.21230  1.0000
  C   C5        1.0  0.55320  0.06949  0.84155  1.0000
  C   C6        1.0  0.44680  0.93053  0.15845  1.0000
  C   C7        1.0  0.41524  0.96908  0.84088  1.0000
  C   C8        1.0  0.58479  0.03093  0.15913  1.0000
  C   C9        1.0  0.21756  0.98103  0.78612  1.0000
  C   C10       1.0  0.78247  0.01897  0.21388  1.0000
  C   C11       1.0  0.15522  0.09370  0.73352  1.0000
  C   C12       1.0  0.84479  0.90630  0.26649  1.0000
  C   C13       1.0  0.18358  0.62693  0.84587  1.0000
  C   C14       1.0  0.81641  0.37307  0.15413  1.0000
  C   C15       1.0  0.95761  0.67843  0.85977  1.0000
  C   C16       1.0  0.04238  0.32156  0.14024  1.0000
  C   C17       1.0  0.87645  0.71582  0.95573  1.0000
  C   C18       1.0  0.12356  0.28417  0.04428  1.0000
  C   C19       1.0  0.01609  0.69904  0.03810  1.0000
  C   C20       1.0  0.98392  0.30095  0.96190  1.0000
  C   C21       1.0  0.32340  0.61001  0.92887  1.0000
  C   C22       1.0  0.67661  0.38998  0.07113  1.0000
  C   C23       1.0  0.23859  0.64455  0.02506  1.0000
  C   C24       1.0  0.76142  0.35545  0.97494  1.0000
  C   C25       1.0  0.26253  0.01167  0.43250  1.0000
  C   C26       1.0  0.73749  0.98832  0.56750  1.0000
  C   C27       1.0  0.26062  0.14133  0.40213  1.0000
  C   C28       1.0  0.73938  0.85866  0.59788  1.0000
  N   N1        1.0  0.26276  0.90664  0.45706  1.0000
  N   N2        1.0  0.73726  0.09336  0.54293  1.0000
  O   O1        1.0  0.29532  0.43492  0.73787  1.0000
  O   O2        1.0  0.70464  0.56508  0.26213  1.0000
  O   O3        1.0  0.94119  0.34989  0.66973  1.0000
  O   O4        1.0  0.05878  0.65012  0.33027  1.0000
  O   O5        1.0  0.33524  0.35483  0.55952  1.0000
  O   O6        1.0  0.66475  0.64518  0.44047  1.0000
  O   O7        1.0  0.55319  0.61701  0.70406  1.0000
  O   O8        1.0  0.44680  0.38299  0.29594  1.0000
  O   O9        1.0  0.13822  0.63558  0.64093  1.0000
  O   O10       1.0  0.86177  0.36443  0.35907  1.0000
