data_image0
_chemical_formula_structural       Co4H28C32N4O20
_chemical_formula_sum              "Co4 H28 C32 N4 O20"
_cell_length_a       7.80917
_cell_length_b       8.81049
_cell_length_c       12.5065
_cell_angle_alpha    89.9927
_cell_angle_beta     89.9221
_cell_angle_gamma    96.7109

_space_group_name_H-M_alt    "P 1"
_space_group_IT_number       1

loop_
  _space_group_symop_operation_xyz
  'x, y, z'

loop_
  _atom_site_type_symbol
  _atom_site_label
  _atom_site_symmetry_multiplicity
  _atom_site_fract_x
  _atom_site_fract_y
  _atom_site_fract_z
  _atom_site_occupancy
  Co  Co1       1.0  0.07783  0.72277  0.43299  1.0000
  Co  Co2       1.0  0.42379  0.27682  0.93365  1.0000
  Co  Co3       1.0  0.92230  0.27724  0.56702  1.0000
  Co  Co4       1.0  0.57670  0.72317  0.06645  1.0000
  H   H1        1.0  0.82873  0.84261  0.31291  1.0000
  H   H2        1.0  0.67072  0.15790  0.81301  1.0000
  H   H3        1.0  0.17144  0.15738  0.68707  1.0000
  H   H4        1.0  0.32930  0.84211  0.18697  1.0000
  H   H5        1.0  0.83803  0.90732  0.43261  1.0000
  H   H6        1.0  0.66397  0.09271  0.93265  1.0000
  H   H7        1.0  0.16202  0.09278  0.56735  1.0000
  H   H8        1.0  0.33616  0.90746  0.06742  1.0000
  H   H9        1.0  0.22549  0.49613  0.96930  1.0000
  H   H10       1.0  0.27633  0.50411  0.46851  1.0000
  H   H11       1.0  0.77462  0.50386  0.03081  1.0000
  H   H12       1.0  0.72376  0.49588  0.53143  1.0000
  H   H13       1.0  0.12547  0.36400  0.88822  1.0000
  H   H14       1.0  0.37645  0.63667  0.38755  1.0000
  H   H15       1.0  0.87468  0.63599  0.11187  1.0000
  H   H16       1.0  0.62365  0.36332  0.61241  1.0000
  H   H17       1.0  0.83770  0.13232  0.29496  1.0000
  H   H18       1.0  0.66120  0.86685  0.79497  1.0000
  H   H19       1.0  0.16224  0.86761  0.70506  1.0000
  H   H20       1.0  0.33884  0.13310  0.20499  1.0000
  H   H21       1.0  0.94982  0.13491  0.95706  1.0000
  H   H22       1.0  0.55139  0.86586  0.45693  1.0000
  H   H23       1.0  0.05023  0.86514  0.04297  1.0000
  H   H24       1.0  0.44863  0.13416  0.54304  1.0000
  H   H25       1.0  0.17091  0.50543  0.15626  1.0000
  H   H26       1.0  0.32862  0.49465  0.65537  1.0000
  H   H27       1.0  0.82900  0.49460  0.84382  1.0000
  H   H28       1.0  0.67131  0.50538  0.34459  1.0000
  C   C1        1.0  0.00385  0.32674  0.23486  1.0000
  C   C2        1.0  0.49516  0.67289  0.73436  1.0000
  C   C3        1.0  0.99604  0.67324  0.76519  1.0000
  C   C4        1.0  0.50482  0.32710  0.26560  1.0000
  C   C5        1.0  0.90378  0.18541  0.22533  1.0000
  C   C6        1.0  0.59532  0.81426  0.72524  1.0000
  C   C7        1.0  0.09616  0.81453  0.77469  1.0000
  C   C8        1.0  0.40470  0.18571  0.27473  1.0000
  C   C9        1.0  0.88120  0.11897  0.12400  1.0000
  C   C10       1.0  0.61844  0.88120  0.62402  1.0000
  C   C11       1.0  0.11878  0.88103  0.87601  1.0000
  C   C12       1.0  0.38156  0.11880  0.37595  1.0000
  C   C13       1.0  0.96789  0.18792  0.03536  1.0000
  C   C14       1.0  0.53243  0.81265  0.53517  1.0000
  C   C15       1.0  0.03210  0.81211  0.96466  1.0000
  C   C16       1.0  0.46756  0.18735  0.46480  1.0000
  C   C17       1.0  0.07908  0.32325  0.04718  1.0000
  C   C18       1.0  0.42120  0.67727  0.54664  1.0000
  C   C19       1.0  0.92091  0.67678  0.95289  1.0000
  C   C20       1.0  0.57878  0.32274  0.45331  1.0000
  C   C21       1.0  0.09158  0.39583  0.14656  1.0000
  C   C22       1.0  0.40789  0.60433  0.64591  1.0000
  C   C23       1.0  0.90831  0.60418  0.85351  1.0000
  C   C24       1.0  0.59205  0.39569  0.35405  1.0000
  C   C25       1.0  0.01583  0.40963  0.33865  1.0000
  C   C26       1.0  0.48324  0.58856  0.83768  1.0000
  C   C27       1.0  0.98402  0.59029  0.66141  1.0000
  C   C28       1.0  0.51666  0.41137  0.16228  1.0000
  C   C29       1.0  0.76601  0.97420  0.10896  1.0000
  C   C30       1.0  0.73379  0.02600  0.60916  1.0000
  C   C31       1.0  0.23393  0.02585  0.89097  1.0000
  C   C32       1.0  0.26618  0.97401  0.39083  1.0000
  N   N1        1.0  0.18384  0.38230  0.96092  1.0000
  N   N2        1.0  0.31739  0.61809  0.46015  1.0000
  N   N3        1.0  0.81620  0.61770  0.03919  1.0000
  N   N4        1.0  0.68264  0.38190  0.53978  1.0000
  O   O1        1.0  0.85152  0.81567  0.38809  1.0000
  O   O2        1.0  0.64907  0.18440  0.88847  1.0000
  O   O3        1.0  0.14853  0.18439  0.61191  1.0000
  O   O4        1.0  0.35106  0.81571  0.11151  1.0000
  O   O5        1.0  0.02223  0.55478  0.33197  1.0000
  O   O6        1.0  0.47602  0.44350  0.82968  1.0000
  O   O7        1.0  0.97731  0.44512  0.66816  1.0000
  O   O8        1.0  0.52339  0.55639  0.17015  1.0000
  O   O9        1.0  0.02313  0.33301  0.42462  1.0000
  O   O10       1.0  0.47721  0.66391  0.92428  1.0000
  O   O11       1.0  0.97705  0.66688  0.57541  1.0000
  O   O12       1.0  0.52313  0.33601  0.07571  1.0000
  O   O13       1.0  0.74197  0.87438  0.18324  1.0000
  O   O14       1.0  0.75542  0.12671  0.68298  1.0000
  O   O15       1.0  0.25847  0.12525  0.81647  1.0000
  O   O16       1.0  0.24467  0.87319  0.31708  1.0000
  O   O17       1.0  0.69258  0.94574  0.01819  1.0000
  O   O18       1.0  0.80976  0.05369  0.51902  1.0000
  O   O19       1.0  0.30675  0.05469  0.98189  1.0000
  O   O20       1.0  0.19006  0.94643  0.48094  1.0000
