data_image0
_chemical_formula_structural       Ni2H18C16N2O12
_chemical_formula_sum              "Ni2 H18 C16 N2 O12"
_cell_length_a       6.48902
_cell_length_b       7.92367
_cell_length_c       10.2685
_cell_angle_alpha    114.411
_cell_angle_beta     101.515
_cell_angle_gamma    99.1604

_space_group_name_H-M_alt    "P 1"
_space_group_IT_number       1

loop_
  _space_group_symop_operation_xyz
  'x, y, z'

loop_
  _atom_site_type_symbol
  _atom_site_label
  _atom_site_symmetry_multiplicity
  _atom_site_fract_x
  _atom_site_fract_y
  _atom_site_fract_z
  _atom_site_occupancy
  Ni  Ni1       1.0  0.20012  0.24912  0.30407  1.0000
  Ni  Ni2       1.0  0.79995  0.75129  0.69575  1.0000
  H   H1        1.0  0.39801  0.61593  0.43315  1.0000
  H   H2        1.0  0.60346  0.38607  0.56621  1.0000
  H   H3        1.0  0.13867  0.59185  0.37531  1.0000
  H   H4        1.0  0.86284  0.41183  0.62546  1.0000
  H   H5        1.0  0.90644  0.22662  0.42314  1.0000
  H   H6        1.0  0.09961  0.77961  0.58100  1.0000
  H   H7        1.0  0.75856  0.25400  0.29209  1.0000
  H   H8        1.0  0.24397  0.74784  0.71073  1.0000
  H   H9        1.0  0.93135  0.07859  0.72545  1.0000
  H   H10       1.0  0.06819  0.92076  0.27510  1.0000
  H   H11       1.0  0.98371  0.09209  0.89621  1.0000
  H   H12       1.0  0.01503  0.90696  0.10415  1.0000
  H   H13       1.0  0.19972  0.34476  0.88298  1.0000
  H   H14       1.0  0.80017  0.65488  0.11643  1.0000
  H   H15       1.0  0.60700  0.12270  0.60599  1.0000
  H   H16       1.0  0.39705  0.88160  0.39548  1.0000
  H   H17       1.0  0.72758  0.14291  0.04013  1.0000
  H   H18       1.0  0.26474  0.84730  0.95655  1.0000
  C   C1        1.0  0.38152  0.26754  0.10796  1.0000
  C   C2        1.0  0.61394  0.72786  0.88972  1.0000
  C   C3        1.0  0.45531  0.24540  0.97493  1.0000
  C   C4        1.0  0.54143  0.75037  0.02342  1.0000
  C   C5        1.0  0.33479  0.28147  0.86486  1.0000
  C   C6        1.0  0.66474  0.71756  0.13453  1.0000
  C   C7        1.0  0.38850  0.23720  0.73170  1.0000
  C   C8        1.0  0.61319  0.76434  0.26861  1.0000
  C   C9        1.0  0.24645  0.25532  0.60650  1.0000
  C   C10       1.0  0.75693  0.74866  0.39449  1.0000
  C   C11       1.0  0.56621  0.16099  0.71053  1.0000
  C   C12       1.0  0.43544  0.84041  0.28994  1.0000
  C   C13       1.0  0.68877  0.12787  0.82127  1.0000
  C   C14       1.0  0.30973  0.87001  0.17813  1.0000
  C   C15       1.0  0.63438  0.17130  0.95441  1.0000
  C   C16       1.0  0.36119  0.82291  0.04363  1.0000
  N   N1        1.0  0.86323  0.04305  0.79589  1.0000
  N   N2        1.0  0.13584  0.95544  0.20406  1.0000
  O   O1        1.0  0.17502  0.24209  0.09311  1.0000
  O   O2        1.0  0.82068  0.75535  0.90462  1.0000
  O   O3        1.0  0.51373  0.29946  0.23000  1.0000
  O   O4        1.0  0.48097  0.69467  0.76769  1.0000
  O   O5        1.0  0.04989  0.25463  0.60240  1.0000
  O   O6        1.0  0.95426  0.75213  0.39944  1.0000
  O   O7        1.0  0.33542  0.25941  0.50584  1.0000
  O   O8        1.0  0.66772  0.74279  0.49461  1.0000
  O   O9        1.0  0.24812  0.53587  0.41111  1.0000
  O   O10       1.0  0.75317  0.46625  0.58789  1.0000
  O   O11       1.0  0.87197  0.19169  0.31524  1.0000
  O   O12       1.0  0.13126  0.81129  0.68807  1.0000
