data_image0
_chemical_formula_structural       Zn4H28C32N4O20
_chemical_formula_sum              "Zn4 H28 C32 N4 O20"
_cell_length_a       8.23703
_cell_length_b       8.90255
_cell_length_c       11.7348
_cell_angle_alpha    102.258
_cell_angle_beta     90
_cell_angle_gamma    90.0001

_space_group_name_H-M_alt    "P 1"
_space_group_IT_number       1

loop_
  _space_group_symop_operation_xyz
  'x, y, z'

loop_
  _atom_site_type_symbol
  _atom_site_label
  _atom_site_symmetry_multiplicity
  _atom_site_fract_x
  _atom_site_fract_y
  _atom_site_fract_z
  _atom_site_occupancy
  Zn  Zn1       1.0  0.96754  0.72146  0.59162  1.0000
  Zn  Zn2       1.0  0.46753  0.77854  0.90838  1.0000
  Zn  Zn3       1.0  0.03247  0.27854  0.40838  1.0000
  Zn  Zn4       1.0  0.53246  0.22146  0.09162  1.0000
  H   H1        1.0  0.86904  0.57556  0.39521  1.0000
  H   H2        1.0  0.36904  0.92444  0.10479  1.0000
  H   H3        1.0  0.13096  0.42444  0.60479  1.0000
  H   H4        1.0  0.63096  0.07556  0.89522  1.0000
  H   H5        1.0  0.74897  0.54349  0.49890  1.0000
  H   H6        1.0  0.24897  0.95651  0.00110  1.0000
  H   H7        1.0  0.25103  0.45651  0.50110  1.0000
  H   H8        1.0  0.75102  0.04349  0.99890  1.0000
  H   H9        1.0  0.84480  0.83082  0.32906  1.0000
  H   H10       1.0  0.34480  0.66918  0.17094  1.0000
  H   H11       1.0  0.15520  0.16918  0.67094  1.0000
  H   H12       1.0  0.65520  0.33082  0.82906  1.0000
  H   H13       1.0  0.34534  0.97109  0.32509  1.0000
  H   H14       1.0  0.84533  0.52891  0.17491  1.0000
  H   H15       1.0  0.65467  0.02890  0.67490  1.0000
  H   H16       1.0  0.15466  0.47109  0.82509  1.0000
  H   H17       1.0  0.48927  0.64677  0.53107  1.0000
  H   H18       1.0  0.98927  0.85323  0.96893  1.0000
  H   H19       1.0  0.51073  0.35323  0.46893  1.0000
  H   H20       1.0  0.01073  0.14677  0.03107  1.0000
  H   H21       1.0  0.04377  0.95597  0.72973  1.0000
  H   H22       1.0  0.54377  0.54403  0.77028  1.0000
  H   H23       1.0  0.95623  0.04403  0.27028  1.0000
  H   H24       1.0  0.45623  0.45597  0.22973  1.0000
  H   H25       1.0  0.91063  0.00843  0.64263  1.0000
  H   H26       1.0  0.41063  0.49157  0.85737  1.0000
  H   H27       1.0  0.08937  0.99157  0.35737  1.0000
  H   H28       1.0  0.58937  0.50843  0.14263  1.0000
  C   C1        1.0  0.67945  0.72708  0.43205  1.0000
  C   C2        1.0  0.17945  0.77292  0.06795  1.0000
  C   C3        1.0  0.32055  0.27292  0.56795  1.0000
  C   C4        1.0  0.82055  0.22708  0.93205  1.0000
  C   C5        1.0  0.71990  0.82512  0.35786  1.0000
  C   C6        1.0  0.21990  0.67488  0.14214  1.0000
  C   C7        1.0  0.28010  0.17488  0.64214  1.0000
  C   C8        1.0  0.78010  0.32512  0.85786  1.0000
  C   C9        1.0  0.59915  0.91298  0.31956  1.0000
  C   C10       1.0  0.09914  0.58701  0.18044  1.0000
  C   C11       1.0  0.40086  0.08701  0.68043  1.0000
  C   C12       1.0  0.90085  0.41298  0.81956  1.0000
  C   C13       1.0  0.43845  0.90333  0.35647  1.0000
  C   C14       1.0  0.93845  0.59667  0.14353  1.0000
  C   C15       1.0  0.56155  0.09667  0.64353  1.0000
  C   C16       1.0  0.06155  0.40333  0.85647  1.0000
  C   C17       1.0  0.39880  0.80747  0.43222  1.0000
  C   C18       1.0  0.89879  0.69253  0.06778  1.0000
  C   C19       1.0  0.60121  0.19253  0.56778  1.0000
  C   C20       1.0  0.10121  0.30747  0.93222  1.0000
  C   C21       1.0  0.52041  0.72058  0.47119  1.0000
  C   C22       1.0  0.02041  0.77942  0.02881  1.0000
  C   C23       1.0  0.47959  0.27943  0.52881  1.0000
  C   C24       1.0  0.97959  0.22058  0.97119  1.0000
  C   C25       1.0  0.63814  0.01389  0.23593  1.0000
  C   C26       1.0  0.13813  0.48611  0.26407  1.0000
  C   C27       1.0  0.36186  0.98611  0.76407  1.0000
  C   C28       1.0  0.86186  0.51389  0.73593  1.0000
  C   C29       1.0  0.22687  0.79254  0.46883  1.0000
  C   C30       1.0  0.72686  0.70746  0.03117  1.0000
  C   C31       1.0  0.77314  0.20746  0.53117  1.0000
  C   C32       1.0  0.27313  0.29254  0.96883  1.0000
  N   N1        1.0  0.80139  0.63053  0.46644  1.0000
  N   N2        1.0  0.30139  0.86946  0.03356  1.0000
  N   N3        1.0  0.19861  0.36946  0.53356  1.0000
  N   N4        1.0  0.69861  0.13054  0.96644  1.0000
  O   O1        1.0  0.78150  0.03974  0.20878  1.0000
  O   O2        1.0  0.28149  0.46027  0.29122  1.0000
  O   O3        1.0  0.21850  0.96027  0.79122  1.0000
  O   O4        1.0  0.71850  0.53974  0.70878  1.0000
  O   O5        1.0  0.51230  0.06845  0.19207  1.0000
  O   O6        1.0  0.01230  0.43156  0.30794  1.0000
  O   O7        1.0  0.48770  0.93155  0.80794  1.0000
  O   O8        1.0  0.98770  0.56845  0.69207  1.0000
  O   O9        1.0  0.11279  0.86503  0.43278  1.0000
  O   O10       1.0  0.61278  0.63497  0.06721  1.0000
  O   O11       1.0  0.88722  0.13497  0.56722  1.0000
  O   O12       1.0  0.38721  0.36503  0.93279  1.0000
  O   O13       1.0  0.20003  0.70089  0.53857  1.0000
  O   O14       1.0  0.70003  0.79912  0.96142  1.0000
  O   O15       1.0  0.79997  0.29911  0.46143  1.0000
  O   O16       1.0  0.29997  0.20089  0.03858  1.0000
  O   O17       1.0  0.93552  0.92837  0.68999  1.0000
  O   O18       1.0  0.43552  0.57163  0.81001  1.0000
  O   O19       1.0  0.06448  0.07163  0.31001  1.0000
  O   O20       1.0  0.56448  0.42837  0.18999  1.0000
