data_image0
_chemical_formula_structural       Cu2H12C24S2N6O2
_chemical_formula_sum              "Cu2 H12 C24 S2 N6 O2"
_cell_length_a       5.66967
_cell_length_b       7.67468
_cell_length_c       12.582
_cell_angle_alpha    88.6289
_cell_angle_beta     90.0136
_cell_angle_gamma    90.0373

_space_group_name_H-M_alt    "P 1"
_space_group_IT_number       1

loop_
  _space_group_symop_operation_xyz
  'x, y, z'

loop_
  _atom_site_type_symbol
  _atom_site_label
  _atom_site_symmetry_multiplicity
  _atom_site_fract_x
  _atom_site_fract_y
  _atom_site_fract_z
  _atom_site_occupancy
  Cu  Cu1       1.0  0.13307  0.47015  0.02177  1.0000
  Cu  Cu2       1.0  0.86436  0.97253  0.52554  1.0000
  H   H1        1.0  0.03630  0.37081  0.26936  1.0000
  H   H2        1.0  0.96282  0.86460  0.22227  1.0000
  H   H3        1.0  0.96489  0.87156  0.76943  1.0000
  H   H4        1.0  0.03717  0.36882  0.72462  1.0000
  H   H5        1.0  0.69578  0.22179  0.35291  1.0000
  H   H6        1.0  0.31365  0.72745  0.14446  1.0000
  H   H7        1.0  0.30550  0.72240  0.85258  1.0000
  H   H8        1.0  0.68665  0.23250  0.64550  1.0000
  H   H9        1.0  0.39437  0.07012  0.24071  1.0000
  H   H10       1.0  0.61144  0.57363  0.26232  1.0000
  H   H11       1.0  0.60595  0.57114  0.73977  1.0000
  H   H12       1.0  0.38936  0.07514  0.76167  1.0000
  C   C1        1.0  0.62931  0.60682  0.99810  1.0000
  C   C2        1.0  0.36927  0.10952  0.50005  1.0000
  C   C3        1.0  0.90916  0.30214  0.22057  1.0000
  C   C4        1.0  0.09108  0.79913  0.27411  1.0000
  C   C5        1.0  0.09182  0.80330  0.72044  1.0000
  C   C6        1.0  0.90924  0.30147  0.77571  1.0000
  C   C7        1.0  0.71606  0.21755  0.26706  1.0000
  C   C8        1.0  0.28905  0.71933  0.23013  1.0000
  C   C9        1.0  0.28483  0.71862  0.76674  1.0000
  C   C10       1.0  0.71147  0.22212  0.73111  1.0000
  C   C11       1.0  0.54911  0.13109  0.20452  1.0000
  C   C12       1.0  0.45494  0.63371  0.29574  1.0000
  C   C13       1.0  0.45121  0.63256  0.70392  1.0000
  C   C14       1.0  0.54558  0.13459  0.79590  1.0000
  C   C15       1.0  0.59015  0.13086  0.09565  1.0000
  C   C16       1.0  0.41129  0.63322  0.40435  1.0000
  C   C17       1.0  0.40961  0.63307  0.59512  1.0000
  C   C18       1.0  0.58883  0.13193  0.90461  1.0000
  C   C19       1.0  0.78984  0.21901  0.05648  1.0000
  C   C20       1.0  0.20929  0.72072  0.43994  1.0000
  C   C21       1.0  0.21009  0.72136  0.55581  1.0000
  C   C22       1.0  0.79071  0.21892  0.94078  1.0000
  C   C23       1.0  0.45513  0.06505  0.00084  1.0000
  C   C24       1.0  0.54456  0.56695  0.50063  1.0000
  S   S1        1.0  0.88072  0.70948  0.99621  1.0000
  S   S2        1.0  0.11777  0.21170  0.49774  1.0000
  N   N1        1.0  0.44558  0.53288  0.99964  1.0000
  N   N2        1.0  0.55306  0.03586  0.50182  1.0000
  N   N3        1.0  0.94719  0.30663  0.11377  1.0000
  N   N4        1.0  0.04887  0.80267  0.37987  1.0000
  N   N5        1.0  0.05323  0.80841  0.61361  1.0000
  N   N6        1.0  0.95117  0.30253  0.88154  1.0000
  O   O1        1.0  0.27591  0.97552  0.00220  1.0000
  O   O2        1.0  0.72357  0.47731  0.50234  1.0000
