data_image0
_chemical_formula_structural       Cu2P2H44C40O8
_chemical_formula_sum              "Cu2 P2 H44 C40 O8"
_cell_length_a       8.46125
_cell_length_b       10.1676
_cell_length_c       11.1517
_cell_angle_alpha    84.3088
_cell_angle_beta     86.4968
_cell_angle_gamma    81.3853

_space_group_name_H-M_alt    "P 1"
_space_group_IT_number       1

loop_
  _space_group_symop_operation_xyz
  'x, y, z'

loop_
  _atom_site_type_symbol
  _atom_site_label
  _atom_site_symmetry_multiplicity
  _atom_site_fract_x
  _atom_site_fract_y
  _atom_site_fract_z
  _atom_site_occupancy
  Cu  Cu1       1.0  0.50000  0.50000  0.50000  1.0000
  Cu  Cu2       1.0  0.00000  0.50000  0.50000  1.0000
  P   P1        1.0  0.76485  0.37904  0.67594  1.0000
  P   P2        1.0  0.23515  0.62096  0.32406  1.0000
  H   H1        1.0  0.23052  0.62290  0.85575  1.0000
  H   H2        1.0  0.76948  0.37710  0.14425  1.0000
  H   H3        1.0  0.42037  0.18760  0.36111  1.0000
  H   H4        1.0  0.57963  0.81239  0.63889  1.0000
  H   H5        1.0  0.80207  0.25748  0.47397  1.0000
  H   H6        1.0  0.19793  0.74251  0.52603  1.0000
  H   H7        1.0  0.67060  0.29627  0.35346  1.0000
  H   H8        1.0  0.32940  0.70373  0.64654  1.0000
  H   H9        1.0  0.76192  0.13011  0.38903  1.0000
  H   H10       1.0  0.23808  0.86988  0.61097  1.0000
  H   H11       1.0  0.77842  0.87818  0.87577  1.0000
  H   H12       1.0  0.22158  0.12182  0.12422  1.0000
  H   H13       1.0  0.19729  0.10311  0.71051  1.0000
  H   H14       1.0  0.80270  0.89689  0.28949  1.0000
  H   H15       1.0  0.11874  0.88238  0.98150  1.0000
  H   H16       1.0  0.88126  0.11763  0.01850  1.0000
  H   H17       1.0  0.02988  0.97501  0.85312  1.0000
  H   H18       1.0  0.97012  0.02499  0.14688  1.0000
  H   H19       1.0  0.21833  0.87016  0.83835  1.0000
  H   H20       1.0  0.78167  0.12984  0.16165  1.0000
  H   H21       1.0  0.53832  0.64208  0.79454  1.0000
  H   H22       1.0  0.46168  0.35792  0.20546  1.0000
  H   H23       1.0  0.53521  0.79549  0.86010  1.0000
  H   H24       1.0  0.46479  0.20451  0.13990  1.0000
  H   H25       1.0  0.53807  0.64293  0.95239  1.0000
  H   H26       1.0  0.46193  0.35707  0.04760  1.0000
  H   H27       1.0  0.05393  0.31050  0.84090  1.0000
  H   H28       1.0  0.94608  0.68951  0.15910  1.0000
  H   H29       1.0  0.21691  0.37531  0.89373  1.0000
  H   H30       1.0  0.78310  0.62470  0.10627  1.0000
  H   H31       1.0  0.18470  0.38948  0.73701  1.0000
  H   H32       1.0  0.81531  0.61052  0.26299  1.0000
  H   H33       1.0  0.52243  0.02694  0.87738  1.0000
  H   H34       1.0  0.47757  0.97306  0.12262  1.0000
  H   H35       1.0  0.32394  0.11322  0.88696  1.0000
  H   H36       1.0  0.67606  0.88678  0.11304  1.0000
  H   H37       1.0  0.49135  0.20115  0.88383  1.0000
  H   H38       1.0  0.50864  0.79885  0.11617  1.0000
  H   H39       1.0  0.09204  0.22197  0.41982  1.0000
  H   H40       1.0  0.90796  0.77803  0.58018  1.0000
  H   H41       1.0  0.05023  0.09860  0.53682  1.0000
  H   H42       1.0  0.94977  0.90140  0.46317  1.0000
  H   H43       1.0  0.16656  0.05298  0.40412  1.0000
  H   H44       1.0  0.83345  0.94702  0.59588  1.0000
  C   C1        1.0  0.56566  0.19440  0.51085  1.0000
  C   C2        1.0  0.43433  0.80560  0.48915  1.0000
  C   C3        1.0  0.76476  0.67103  0.86019  1.0000
  C   C4        1.0  0.23524  0.32897  0.13981  1.0000
  C   C5        1.0  0.85589  0.54447  0.84536  1.0000
  C   C6        1.0  0.14411  0.45553  0.15465  1.0000
  C   C7        1.0  0.10037  0.63748  0.85271  1.0000
  C   C8        1.0  0.89963  0.36252  0.14729  1.0000
  C   C9        1.0  0.01432  0.76390  0.86679  1.0000
  C   C10       1.0  0.98568  0.23610  0.13321  1.0000
  C   C11       1.0  0.02435  0.52713  0.83959  1.0000
  C   C12       1.0  0.97565  0.47287  0.16041  1.0000
  C   C13       1.0  0.57335  0.17462  0.63799  1.0000
  C   C14       1.0  0.42665  0.82538  0.36201  1.0000
  C   C15       1.0  0.42545  0.17603  0.45907  1.0000
  C   C16       1.0  0.57455  0.82396  0.54093  1.0000
  C   C17       1.0  0.76891  0.43047  0.83284  1.0000
  C   C18       1.0  0.23109  0.56953  0.16716  1.0000
  C   C19       1.0  0.44115  0.13818  0.71134  1.0000
  C   C20       1.0  0.55885  0.86182  0.28867  1.0000
  C   C21       1.0  0.70732  0.22207  0.42872  1.0000
  C   C22       1.0  0.29268  0.77793  0.57128  1.0000
  C   C23       1.0  0.29175  0.14367  0.52913  1.0000
  C   C24       1.0  0.70825  0.85633  0.47087  1.0000
  C   C25       1.0  0.84667  0.77909  0.86802  1.0000
  C   C26       1.0  0.15333  0.22091  0.13198  1.0000
  C   C27       1.0  0.71368  0.20343  0.69825  1.0000
  C   C28       1.0  0.28632  0.79657  0.30175  1.0000
  C   C29       1.0  0.30201  0.12590  0.65471  1.0000
  C   C30       1.0  0.69799  0.87411  0.34529  1.0000
  C   C31       1.0  0.09964  0.87940  0.88501  1.0000
  C   C32       1.0  0.90036  0.12060  0.11500  1.0000
  C   C33       1.0  0.58473  0.68911  0.86701  1.0000
  C   C34       1.0  0.41527  0.31088  0.13299  1.0000
  C   C35       1.0  0.12430  0.39347  0.82694  1.0000
  C   C36       1.0  0.87570  0.60653  0.17306  1.0000
  C   C37       1.0  0.44457  0.11916  0.84690  1.0000
  C   C38       1.0  0.55543  0.88084  0.15310  1.0000
  C   C39       1.0  0.14199  0.12787  0.47008  1.0000
  C   C40       1.0  0.85801  0.87213  0.52992  1.0000
  O   O1        1.0  0.67910  0.38300  0.91041  1.0000
  O   O2        1.0  0.32090  0.61700  0.08959  1.0000
  O   O3        1.0  0.79321  0.12676  0.77165  1.0000
  O   O4        1.0  0.20678  0.87324  0.22835  1.0000
  O   O5        1.0  0.62586  0.48211  0.63003  1.0000
  O   O6        1.0  0.37414  0.51789  0.36997  1.0000
  O   O7        1.0  0.92597  0.37104  0.60485  1.0000
  O   O8        1.0  0.07403  0.62895  0.39515  1.0000
