data_image0
_chemical_formula_structural       Ni2H16C8O14
_chemical_formula_sum              "Ni2 H16 C8 O14"
_cell_length_a       5.73145
_cell_length_b       8.58565
_cell_length_c       8.81399
_cell_angle_alpha    90
_cell_angle_beta     89.9992
_cell_angle_gamma    117.283

_space_group_name_H-M_alt    "P 1"
_space_group_IT_number       1

loop_
  _space_group_symop_operation_xyz
  'x, y, z'

loop_
  _atom_site_type_symbol
  _atom_site_label
  _atom_site_symmetry_multiplicity
  _atom_site_fract_x
  _atom_site_fract_y
  _atom_site_fract_z
  _atom_site_occupancy
  Ni  Ni1       1.0  0.95184  0.64438  0.14909  1.0000
  Ni  Ni2       1.0  0.04817  0.35562  0.64909  1.0000
  H   H1        1.0  0.32651  0.08739  0.35174  1.0000
  H   H2        1.0  0.67349  0.91261  0.85173  1.0000
  H   H3        1.0  0.87891  0.91131  0.26543  1.0000
  H   H4        1.0  0.12109  0.08869  0.76543  1.0000
  H   H5        1.0  0.26971  0.91453  0.57661  1.0000
  H   H6        1.0  0.73027  0.08547  0.07660  1.0000
  H   H7        1.0  0.95309  0.87870  0.52173  1.0000
  H   H8        1.0  0.04688  0.12129  0.02174  1.0000
  H   H9        1.0  0.52536  0.53917  0.00092  1.0000
  H   H10       1.0  0.47462  0.46080  0.50090  1.0000
  H   H11       1.0  0.48556  0.63157  0.14396  1.0000
  H   H12       1.0  0.51445  0.36843  0.64394  1.0000
  H   H13       1.0  0.14509  0.83268  0.90137  1.0000
  H   H14       1.0  0.85492  0.16733  0.40136  1.0000
  H   H15       1.0  0.05696  0.62916  0.87703  1.0000
  H   H16       1.0  0.94305  0.37084  0.37703  1.0000
  C   C1        1.0  0.43175  0.88617  0.28284  1.0000
  C   C2        1.0  0.56828  0.11384  0.78283  1.0000
  C   C3        1.0  0.23011  0.94407  0.33657  1.0000
  C   C4        1.0  0.76989  0.05593  0.83657  1.0000
  C   C5        1.0  0.11910  0.85447  0.48943  1.0000
  C   C6        1.0  0.88089  0.14552  0.98943  1.0000
  C   C7        1.0  0.03001  0.65826  0.48985  1.0000
  C   C8        1.0  0.96999  0.34175  0.98986  1.0000
  O   O1        1.0  0.66053  0.95823  0.33858  1.0000
  O   O2        1.0  0.33944  0.04176  0.83858  1.0000
  O   O3        1.0  0.35167  0.75998  0.18765  1.0000
  O   O4        1.0  0.64834  0.24002  0.68765  1.0000
  O   O5        1.0  0.03053  0.89499  0.22215  1.0000
  O   O6        1.0  0.96948  0.10502  0.72215  1.0000
  O   O7        1.0  0.09277  0.59875  0.60590  1.0000
  O   O8        1.0  0.90724  0.40124  0.10590  1.0000
  O   O9        1.0  0.89902  0.56345  0.37701  1.0000
  O   O10       1.0  0.10100  0.43655  0.87701  1.0000
  O   O11       1.0  0.55521  0.54945  0.11047  1.0000
  O   O12       1.0  0.44479  0.45055  0.61045  1.0000
  O   O13       1.0  0.00300  0.71328  0.92360  1.0000
  O   O14       1.0  0.99701  0.28673  0.42360  1.0000
