data_image0
_chemical_formula_structural       Mn2H32C24O16F8
_chemical_formula_sum              "Mn2 H32 C24 O16 F8"
_cell_length_a       8.41096
_cell_length_b       8.41094
_cell_length_c       13.4818
_cell_angle_alpha    93.2372
_cell_angle_beta     93.2368
_cell_angle_gamma    115.325

_space_group_name_H-M_alt    "P 1"
_space_group_IT_number       1

loop_
  _space_group_symop_operation_xyz
  'x, y, z'

loop_
  _atom_site_type_symbol
  _atom_site_label
  _atom_site_symmetry_multiplicity
  _atom_site_fract_x
  _atom_site_fract_y
  _atom_site_fract_z
  _atom_site_occupancy
  Mn  Mn1       1.0  0.02674  0.97326  0.75000  1.0000
  Mn  Mn2       1.0  0.97326  0.02674  0.25000  1.0000
  H   H1        1.0  0.79938  0.84792  0.59197  1.0000
  H   H2        1.0  0.15208  0.20062  0.90803  1.0000
  H   H3        1.0  0.20061  0.15207  0.40802  1.0000
  H   H4        1.0  0.84793  0.79938  0.09197  1.0000
  H   H5        1.0  0.02314  0.77275  0.90958  1.0000
  H   H6        1.0  0.22726  0.97686  0.59042  1.0000
  H   H7        1.0  0.97686  0.22724  0.09042  1.0000
  H   H8        1.0  0.77276  0.02314  0.40958  1.0000
  H   H9        1.0  0.68755  0.60802  0.74582  1.0000
  H   H10       1.0  0.39199  0.31245  0.75418  1.0000
  H   H11       1.0  0.31245  0.39198  0.25418  1.0000
  H   H12       1.0  0.60801  0.68755  0.24582  1.0000
  H   H13       1.0  0.59372  0.53619  0.61913  1.0000
  H   H14       1.0  0.46382  0.40628  0.88087  1.0000
  H   H15       1.0  0.40628  0.46381  0.38088  1.0000
  H   H16       1.0  0.53618  0.59372  0.11912  1.0000
  H   H17       1.0  0.56778  0.71222  0.68657  1.0000
  H   H18       1.0  0.28778  0.43222  0.81344  1.0000
  H   H19       1.0  0.43221  0.28777  0.31344  1.0000
  H   H20       1.0  0.71222  0.56779  0.18656  1.0000
  H   H21       1.0  0.00631  0.58443  0.71860  1.0000
  H   H22       1.0  0.41557  0.99370  0.78140  1.0000
  H   H23       1.0  0.99371  0.41557  0.28140  1.0000
  H   H24       1.0  0.58443  0.00629  0.21860  1.0000
  H   H25       1.0  0.91078  0.48497  0.82782  1.0000
  H   H26       1.0  0.51504  0.08923  0.67218  1.0000
  H   H27       1.0  0.08923  0.51503  0.17218  1.0000
  H   H28       1.0  0.48497  0.91077  0.32782  1.0000
  H   H29       1.0  0.14534  0.58913  0.82510  1.0000
  H   H30       1.0  0.41087  0.85467  0.67490  1.0000
  H   H31       1.0  0.85467  0.41086  0.17490  1.0000
  H   H32       1.0  0.58914  0.14533  0.32510  1.0000
  C   C1        1.0  0.92369  0.16041  0.58012  1.0000
  C   C2        1.0  0.83960  0.07631  0.91988  1.0000
  C   C3        1.0  0.07630  0.83959  0.41988  1.0000
  C   C4        1.0  0.16041  0.92368  0.08012  1.0000
  C   C5        1.0  0.96153  0.33473  0.53873  1.0000
  C   C6        1.0  0.66527  0.03847  0.96127  1.0000
  C   C7        1.0  0.03846  0.66527  0.46127  1.0000
  C   C8        1.0  0.33473  0.96154  0.03873  1.0000
  C   C9        1.0  0.13526  0.45866  0.53231  1.0000
  C   C10       1.0  0.54134  0.86473  0.96769  1.0000
  C   C11       1.0  0.86474  0.54134  0.46770  1.0000
  C   C12       1.0  0.45865  0.13526  0.03231  1.0000
  C   C13       1.0  0.17258  0.61952  0.49374  1.0000
  C   C14       1.0  0.38048  0.82741  0.00626  1.0000
  C   C15       1.0  0.82741  0.38049  0.50627  1.0000
  C   C16       1.0  0.61951  0.17258  0.99373  1.0000
  C   C17       1.0  0.65764  0.65053  0.67466  1.0000
  C   C18       1.0  0.34947  0.34236  0.82534  1.0000
  C   C19       1.0  0.34235  0.34946  0.32535  1.0000
  C   C20       1.0  0.65053  0.65764  0.17465  1.0000
  C   C21       1.0  0.02165  0.59561  0.80030  1.0000
  C   C22       1.0  0.40439  0.97835  0.69970  1.0000
  C   C23       1.0  0.97836  0.40439  0.19971  1.0000
  C   C24       1.0  0.59561  0.02165  0.30030  1.0000
  O   O1        1.0  0.81536  0.01960  0.52881  1.0000
  O   O2        1.0  0.98040  0.18465  0.97119  1.0000
  O   O3        1.0  0.18464  0.98040  0.47118  1.0000
  O   O4        1.0  0.01961  0.81536  0.02882  1.0000
  O   O5        1.0  0.00524  0.17027  0.66337  1.0000
  O   O6        1.0  0.82973  0.99475  0.83663  1.0000
  O   O7        1.0  0.99474  0.82973  0.33663  1.0000
  O   O8        1.0  0.17028  0.00526  0.16338  1.0000
  O   O9        1.0  0.82165  0.77482  0.64266  1.0000
  O   O10       1.0  0.22518  0.17834  0.85734  1.0000
  O   O11       1.0  0.17834  0.22518  0.35734  1.0000
  O   O12       1.0  0.77481  0.82166  0.14266  1.0000
  O   O13       1.0  0.02511  0.76149  0.83491  1.0000
  O   O14       1.0  0.23851  0.97489  0.66509  1.0000
  O   O15       1.0  0.97490  0.23850  0.16509  1.0000
  O   O16       1.0  0.76149  0.02510  0.33491  1.0000
  F   F1        1.0  0.27177  0.42218  0.56140  1.0000
  F   F2        1.0  0.57782  0.72823  0.93860  1.0000
  F   F3        1.0  0.72822  0.57782  0.43860  1.0000
  F   F4        1.0  0.42217  0.27177  0.06140  1.0000
  F   F5        1.0  0.34422  0.73127  0.48579  1.0000
  F   F6        1.0  0.26874  0.65577  0.01420  1.0000
  F   F7        1.0  0.65577  0.26875  0.51422  1.0000
  F   F8        1.0  0.73124  0.34423  0.98578  1.0000
