data_image0
_chemical_formula_structural       Cd2H24C28N20
_chemical_formula_sum              "Cd2 H24 C28 N20"
_cell_length_a       8.90562
_cell_length_b       9.6631
_cell_length_c       10.0558
_cell_angle_alpha    90.0001
_cell_angle_beta     89.9998
_cell_angle_gamma    116.823

_space_group_name_H-M_alt    "P 1"
_space_group_IT_number       1

loop_
  _space_group_symop_operation_xyz
  'x, y, z'

loop_
  _atom_site_type_symbol
  _atom_site_label
  _atom_site_symmetry_multiplicity
  _atom_site_fract_x
  _atom_site_fract_y
  _atom_site_fract_z
  _atom_site_occupancy
  Cd  Cd1       1.0  1.00000  0.50000  0.50000  1.0000
  Cd  Cd2       1.0  0.50000  0.50000  1.00000  1.0000
  H   H1        1.0  0.98418  0.95620  0.17907  1.0000
  H   H2        1.0  0.51582  0.04380  0.67907  1.0000
  H   H3        1.0  0.01582  0.04380  0.82093  1.0000
  H   H4        1.0  0.48418  0.95620  0.32093  1.0000
  H   H5        1.0  0.00513  0.61013  0.16966  1.0000
  H   H6        1.0  0.49488  0.38987  0.66966  1.0000
  H   H7        1.0  0.99488  0.38987  0.83034  1.0000
  H   H8        1.0  0.50512  0.61013  0.33034  1.0000
  H   H9        1.0  0.87908  0.69659  0.11848  1.0000
  H   H10       1.0  0.62093  0.30341  0.61849  1.0000
  H   H11       1.0  0.12093  0.30342  0.88151  1.0000
  H   H12       1.0  0.37908  0.69658  0.38152  1.0000
  H   H13       1.0  0.29676  0.12194  0.52818  1.0000
  H   H14       1.0  0.20324  0.87806  0.02818  1.0000
  H   H15       1.0  0.70324  0.87806  0.47182  1.0000
  H   H16       1.0  0.79676  0.12194  0.97182  1.0000
  H   H17       1.0  0.17070  0.17731  0.32413  1.0000
  H   H18       1.0  0.32930  0.82269  0.82413  1.0000
  H   H19       1.0  0.82930  0.82269  0.67587  1.0000
  H   H20       1.0  0.67069  0.17731  0.17587  1.0000
  H   H21       1.0  0.21931  0.84477  0.58297  1.0000
  H   H22       1.0  0.28069  0.15522  0.08297  1.0000
  H   H23       1.0  0.78069  0.15522  0.41703  1.0000
  H   H24       1.0  0.71931  0.84478  0.91703  1.0000
  C   C1        1.0  0.01150  0.78503  0.30130  1.0000
  C   C2        1.0  0.48850  0.21497  0.80130  1.0000
  C   C3        1.0  0.98850  0.21497  0.69870  1.0000
  C   C4        1.0  0.51150  0.78503  0.19870  1.0000
  C   C5        1.0  0.04100  0.93588  0.26834  1.0000
  C   C6        1.0  0.45900  0.06412  0.76834  1.0000
  C   C7        1.0  0.95900  0.06412  0.73166  1.0000
  C   C8        1.0  0.54100  0.93588  0.23166  1.0000
  C   C9        1.0  0.91660  0.65260  0.20627  1.0000
  C   C10       1.0  0.58341  0.34740  0.70627  1.0000
  C   C11       1.0  0.08340  0.34740  0.79373  1.0000
  C   C12       1.0  0.41660  0.65260  0.29373  1.0000
  C   C13       1.0  0.21335  0.02882  0.46336  1.0000
  C   C14       1.0  0.28665  0.97118  0.96336  1.0000
  C   C15       1.0  0.78665  0.97118  0.53664  1.0000
  C   C16       1.0  0.71334  0.02882  0.03664  1.0000
  C   C17       1.0  0.14426  0.05922  0.34954  1.0000
  C   C18       1.0  0.35574  0.94078  0.84954  1.0000
  C   C19       1.0  0.85573  0.94078  0.65046  1.0000
  C   C20       1.0  0.64426  0.05922  0.15046  1.0000
  C   C21       1.0  0.17308  0.87550  0.49296  1.0000
  C   C22       1.0  0.32692  0.12450  0.99296  1.0000
  C   C23       1.0  0.82692  0.12450  0.50704  1.0000
  C   C24       1.0  0.67308  0.87550  0.00704  1.0000
  C   C25       1.0  0.76625  0.51618  0.25979  1.0000
  C   C26       1.0  0.73375  0.48382  0.75979  1.0000
  C   C27       1.0  0.23375  0.48382  0.74021  1.0000
  C   C28       1.0  0.26625  0.51618  0.24021  1.0000
  N   N1        1.0  0.07561  0.75623  0.41379  1.0000
  N   N2        1.0  0.42439  0.24377  0.91379  1.0000
  N   N3        1.0  0.92439  0.24377  0.58621  1.0000
  N   N4        1.0  0.57561  0.75623  0.08621  1.0000
  N   N5        1.0  0.61614  0.44689  0.19841  1.0000
  N   N6        1.0  0.88386  0.55311  0.69841  1.0000
  N   N7        1.0  0.38386  0.55311  0.80159  1.0000
  N   N8        1.0  0.11614  0.44689  0.30159  1.0000
  N   N9        1.0  0.76086  0.43913  0.37215  1.0000
  N   N10       1.0  0.73914  0.56087  0.87215  1.0000
  N   N11       1.0  0.23914  0.56087  0.62785  1.0000
  N   N12       1.0  0.26086  0.43913  0.12785  1.0000
  N   N13       1.0  0.51717  0.32500  0.27597  1.0000
  N   N14       1.0  0.98283  0.67500  0.77597  1.0000
  N   N15       1.0  0.48283  0.67500  0.72403  1.0000
  N   N16       1.0  0.01717  0.32500  0.22403  1.0000
  N   N17       1.0  0.60362  0.32008  0.37992  1.0000
  N   N18       1.0  0.89638  0.67992  0.87992  1.0000
  N   N19       1.0  0.39638  0.67992  0.62007  1.0000
  N   N20       1.0  0.10362  0.32008  0.12007  1.0000
