data_image0
_chemical_formula_structural       Zn2H32C44N4O12
_chemical_formula_sum              "Zn2 H32 C44 N4 O12"
_cell_length_a       8.38226
_cell_length_b       8.38227
_cell_length_c       14.7979
_cell_angle_alpha    78.4072
_cell_angle_beta     78.4072
_cell_angle_gamma    72.0431

_space_group_name_H-M_alt    "P 1"
_space_group_IT_number       1

loop_
  _space_group_symop_operation_xyz
  'x, y, z'

loop_
  _atom_site_type_symbol
  _atom_site_label
  _atom_site_symmetry_multiplicity
  _atom_site_fract_x
  _atom_site_fract_y
  _atom_site_fract_z
  _atom_site_occupancy
  Zn  Zn1       1.0  0.06766  0.93234  0.25000  1.0000
  Zn  Zn2       1.0  0.93234  0.06765  0.75000  1.0000
  H   H1        1.0  0.24998  0.23811  0.54192  1.0000
  H   H2        1.0  0.76189  0.75002  0.95808  1.0000
  H   H3        1.0  0.75002  0.76189  0.45808  1.0000
  H   H4        1.0  0.23811  0.24998  0.04192  1.0000
  H   H5        1.0  0.20596  0.97963  0.51401  1.0000
  H   H6        1.0  0.02038  0.79404  0.98599  1.0000
  H   H7        1.0  0.79404  0.02037  0.48599  1.0000
  H   H8        1.0  0.97963  0.20596  0.01401  1.0000
  H   H9        1.0  0.21884  0.71464  0.53669  1.0000
  H   H10       1.0  0.28536  0.78115  0.96331  1.0000
  H   H11       1.0  0.78115  0.28536  0.46331  1.0000
  H   H12       1.0  0.71464  0.21885  0.03669  1.0000
  H   H13       1.0  0.32031  0.54468  0.47234  1.0000
  H   H14       1.0  0.45532  0.67969  0.02766  1.0000
  H   H15       1.0  0.67969  0.45532  0.52766  1.0000
  H   H16       1.0  0.54468  0.32031  0.97234  1.0000
  H   H17       1.0  0.81395  0.79769  0.17029  1.0000
  H   H18       1.0  0.20231  0.18605  0.32971  1.0000
  H   H19       1.0  0.18605  0.20231  0.82971  1.0000
  H   H20       1.0  0.79769  0.81395  0.67029  1.0000
  H   H21       1.0  0.50783  0.91785  0.14307  1.0000
  H   H22       1.0  0.08214  0.49217  0.35693  1.0000
  H   H23       1.0  0.49217  0.08215  0.85693  1.0000
  H   H24       1.0  0.91786  0.50783  0.64307  1.0000
  H   H25       1.0  0.35390  0.21214  0.17245  1.0000
  H   H26       1.0  0.78786  0.64609  0.32755  1.0000
  H   H27       1.0  0.64609  0.78786  0.82755  1.0000
  H   H28       1.0  0.21214  0.35390  0.67245  1.0000
  H   H29       1.0  0.35861  0.48396  0.22232  1.0000
  H   H30       1.0  0.51604  0.64139  0.27768  1.0000
  H   H31       1.0  0.64139  0.51604  0.77768  1.0000
  H   H32       1.0  0.48396  0.35861  0.72232  1.0000
  C   C1        1.0  0.36032  0.13403  0.52356  1.0000
  C   C2        1.0  0.86598  0.63968  0.97644  1.0000
  C   C3        1.0  0.63968  0.86598  0.47644  1.0000
  C   C4        1.0  0.13403  0.36032  0.02356  1.0000
  C   C5        1.0  0.33571  0.98561  0.50760  1.0000
  C   C6        1.0  0.01439  0.66429  0.99240  1.0000
  C   C7        1.0  0.66429  0.01439  0.49240  1.0000
  C   C8        1.0  0.98561  0.33571  0.00760  1.0000
  C   C9        1.0  0.47601  0.85052  0.48382  1.0000
  C   C10       1.0  0.14948  0.52399  0.01618  1.0000
  C   C11       1.0  0.52399  0.14948  0.51618  1.0000
  C   C12       1.0  0.85052  0.47601  0.98382  1.0000
  C   C13       1.0  0.30094  0.68060  0.47150  1.0000
  C   C14       1.0  0.31941  0.69906  0.02849  1.0000
  C   C15       1.0  0.69906  0.31940  0.52850  1.0000
  C   C16       1.0  0.68059  0.30095  0.97150  1.0000
  C   C17       1.0  0.21053  0.78009  0.38965  1.0000
  C   C18       1.0  0.21991  0.78947  0.11035  1.0000
  C   C19       1.0  0.78948  0.21991  0.61035  1.0000
  C   C20       1.0  0.78009  0.21053  0.88965  1.0000
  C   C21       1.0  0.73922  0.92403  0.18504  1.0000
  C   C22       1.0  0.07597  0.26078  0.31496  1.0000
  C   C23       1.0  0.26078  0.07597  0.81496  1.0000
  C   C24       1.0  0.92403  0.73922  0.68504  1.0000
  C   C25       1.0  0.57008  0.99195  0.16913  1.0000
  C   C26       1.0  0.00805  0.42992  0.33087  1.0000
  C   C27       1.0  0.42992  0.00805  0.83086  1.0000
  C   C28       1.0  0.99195  0.57008  0.66913  1.0000
  C   C29       1.0  0.48393  0.15511  0.18621  1.0000
  C   C30       1.0  0.84489  0.51607  0.31379  1.0000
  C   C31       1.0  0.51607  0.84489  0.81379  1.0000
  C   C32       1.0  0.15511  0.48393  0.68621  1.0000
  C   C33       1.0  0.48904  0.42304  0.23518  1.0000
  C   C34       1.0  0.57695  0.51096  0.26483  1.0000
  C   C35       1.0  0.51096  0.57695  0.76482  1.0000
  C   C36       1.0  0.42304  0.48903  0.73518  1.0000
  C   C37       1.0  0.56650  0.25131  0.21877  1.0000
  C   C38       1.0  0.74869  0.43350  0.28123  1.0000
  C   C39       1.0  0.43350  0.74869  0.78123  1.0000
  C   C40       1.0  0.25131  0.56650  0.71877  1.0000
  C   C41       1.0  0.73665  0.17151  0.23386  1.0000
  C   C42       1.0  0.82849  0.26335  0.26614  1.0000
  C   C43       1.0  0.26335  0.82849  0.76614  1.0000
  C   C44       1.0  0.17151  0.73665  0.73386  1.0000
  N   N1        1.0  0.81895  0.01074  0.21771  1.0000
  N   N2        1.0  0.98926  0.18106  0.28229  1.0000
  N   N3        1.0  0.18105  0.98926  0.78229  1.0000
  N   N4        1.0  0.01074  0.81894  0.71771  1.0000
  O   O1        1.0  0.05700  0.78096  0.39306  1.0000
  O   O2        1.0  0.21904  0.94300  0.10694  1.0000
  O   O3        1.0  0.94300  0.21904  0.60694  1.0000
  O   O4        1.0  0.78096  0.05701  0.89306  1.0000
  O   O5        1.0  0.28908  0.85587  0.32003  1.0000
  O   O6        1.0  0.14414  0.71092  0.17997  1.0000
  O   O7        1.0  0.71093  0.14413  0.67997  1.0000
  O   O8        1.0  0.85586  0.28908  0.82003  1.0000
  O   O9        1.0  0.46563  0.69834  0.46725  1.0000
  O   O10       1.0  0.30166  0.53437  0.03275  1.0000
  O   O11       1.0  0.53437  0.30166  0.53275  1.0000
  O   O12       1.0  0.69834  0.46563  0.96725  1.0000
