data_image0
_chemical_formula_structural       Cd2H34C38N6O16
_chemical_formula_sum              "Cd2 H34 C38 N6 O16"
_cell_length_a       10.0368
_cell_length_b       10.3905
_cell_length_c       11.2737
_cell_angle_alpha    95.0096
_cell_angle_beta     88.1908
_cell_angle_gamma    122.085

_space_group_name_H-M_alt    "P 1"
_space_group_IT_number       1

loop_
  _space_group_symop_operation_xyz
  'x, y, z'

loop_
  _atom_site_type_symbol
  _atom_site_label
  _atom_site_symmetry_multiplicity
  _atom_site_fract_x
  _atom_site_fract_y
  _atom_site_fract_z
  _atom_site_occupancy
  Cd  Cd1       1.0  0.71324  0.39511  0.02906  1.0000
  Cd  Cd2       1.0  0.28675  0.60488  0.97094  1.0000
  H   H1        1.0  0.97717  0.41896  0.13644  1.0000
  H   H2        1.0  0.02283  0.58104  0.86356  1.0000
  H   H3        1.0  0.02896  0.58801  0.13101  1.0000
  H   H4        1.0  0.97103  0.41199  0.86899  1.0000
  H   H5        1.0  0.13668  0.01561  0.63779  1.0000
  H   H6        1.0  0.86332  0.98438  0.36221  1.0000
  H   H7        1.0  0.42429  0.32336  0.91500  1.0000
  H   H8        1.0  0.57570  0.67664  0.08500  1.0000
  H   H9        1.0  0.55011  0.35454  0.81400  1.0000
  H   H10       1.0  0.44987  0.64546  0.18600  1.0000
  H   H11       1.0  0.37299  0.92921  0.29624  1.0000
  H   H12       1.0  0.62702  0.07079  0.70376  1.0000
  H   H13       1.0  0.72489  0.89477  0.03753  1.0000
  H   H14       1.0  0.27511  0.10523  0.96247  1.0000
  H   H15       1.0  0.99223  0.81122  0.76716  1.0000
  H   H16       1.0  0.00776  0.18877  0.23284  1.0000
  H   H17       1.0  0.97305  0.21544  0.77520  1.0000
  H   H18       1.0  0.02695  0.78456  0.22481  1.0000
  H   H19       1.0  0.21535  0.76456  0.65550  1.0000
  H   H20       1.0  0.78466  0.23545  0.34449  1.0000
  H   H21       1.0  0.19231  0.45381  0.29368  1.0000
  H   H22       1.0  0.80770  0.54620  0.70633  1.0000
  H   H23       1.0  0.25945  0.71477  0.27338  1.0000
  H   H24       1.0  0.74056  0.28524  0.72662  1.0000
  H   H25       1.0  0.30814  0.21158  0.47932  1.0000
  H   H26       1.0  0.69187  0.78842  0.52068  1.0000
  H   H27       1.0  0.42792  0.47249  0.41262  1.0000
  H   H28       1.0  0.57209  0.52752  0.58738  1.0000
  H   H29       1.0  0.59779  0.54409  0.23100  1.0000
  H   H30       1.0  0.40222  0.45591  0.76901  1.0000
  H   H31       1.0  0.52453  0.11270  0.17519  1.0000
  H   H32       1.0  0.47546  0.88730  0.82480  1.0000
  H   H33       1.0  0.14635  0.49661  0.65953  1.0000
  H   H34       1.0  0.85367  0.50340  0.34046  1.0000
  C   C1        1.0  0.78021  0.15783  0.96682  1.0000
  C   C2        1.0  0.21979  0.84217  0.03318  1.0000
  C   C3        1.0  0.84077  0.06277  0.91156  1.0000
  C   C4        1.0  0.15923  0.93722  0.08844  1.0000
  C   C5        1.0  0.79812  0.92621  0.95917  1.0000
  C   C6        1.0  0.20188  0.07379  0.04083  1.0000
  C   C7        1.0  0.80422  0.68777  0.95498  1.0000
  C   C8        1.0  0.19577  0.31222  0.04502  1.0000
  C   C9        1.0  0.94976  0.88206  0.80690  1.0000
  C   C10       1.0  0.05023  0.11794  0.19311  1.0000
  C   C11       1.0  0.99489  0.02032  0.76079  1.0000
  C   C12       1.0  0.00510  0.97967  0.23921  1.0000
  C   C13       1.0  0.93835  0.10927  0.81303  1.0000
  C   C14       1.0  0.06165  0.89072  0.18698  1.0000
  C   C15       1.0  0.21365  0.69930  0.57383  1.0000
  C   C16       1.0  0.78636  0.30070  0.42616  1.0000
  C   C17       1.0  0.20225  0.52648  0.37343  1.0000
  C   C18       1.0  0.79776  0.47352  0.62657  1.0000
  C   C19       1.0  0.24240  0.67547  0.36247  1.0000
  C   C20       1.0  0.75761  0.32453  0.63753  1.0000
  C   C21       1.0  0.38041  0.24421  0.40056  1.0000
  C   C22       1.0  0.61959  0.75579  0.59944  1.0000
  C   C23       1.0  0.44760  0.38998  0.36257  1.0000
  C   C24       1.0  0.55241  0.61002  0.63743  1.0000
  C   C25       1.0  0.53845  0.42974  0.26101  1.0000
  C   C26       1.0  0.46156  0.57027  0.73899  1.0000
  C   C27       1.0  0.85115  0.83505  0.90601  1.0000
  C   C28       1.0  0.14884  0.16494  0.09399  1.0000
  C   C29       1.0  0.49850  0.18839  0.23023  1.0000
  C   C30       1.0  0.50150  0.81162  0.76976  1.0000
  C   C31       1.0  0.40978  0.14164  0.33406  1.0000
  C   C32       1.0  0.59022  0.85836  0.66593  1.0000
  C   C33       1.0  0.29391  0.92719  0.46510  1.0000
  C   C34       1.0  0.70610  0.07281  0.53489  1.0000
  C   C35       1.0  0.25033  0.76544  0.46536  1.0000
  C   C36       1.0  0.74968  0.23457  0.53464  1.0000
  C   C37       1.0  0.17567  0.54923  0.57536  1.0000
  C   C38       1.0  0.82434  0.45078  0.42463  1.0000
  N   N1        1.0  0.35664  0.99350  0.36138  1.0000
  N   N2        1.0  0.64336  0.00650  0.63862  1.0000
  N   N3        1.0  0.56053  0.32838  0.19493  1.0000
  N   N4        1.0  0.43947  0.67162  0.80507  1.0000
  N   N5        1.0  0.17117  0.46322  0.47764  1.0000
  N   N6        1.0  0.82884  0.53679  0.52236  1.0000
  O   O1        1.0  0.93655  0.48700  0.15040  1.0000
  O   O2        1.0  0.06344  0.51300  0.84960  1.0000
  O   O3        1.0  0.79706  0.26598  0.90464  1.0000
  O   O4        1.0  0.20294  0.73402  0.09535  1.0000
  O   O5        1.0  0.09067  0.07602  0.66666  1.0000
  O   O6        1.0  0.90933  0.92398  0.33334  1.0000
  O   O7        1.0  0.71630  0.13365  0.06632  1.0000
  O   O8        1.0  0.28370  0.86636  0.93368  1.0000
  O   O9        1.0  0.70418  0.63699  0.03862  1.0000
  O   O10       1.0  0.29581  0.36301  0.96138  1.0000
  O   O11       1.0  0.86323  0.61127  0.91112  1.0000
  O   O12       1.0  0.13677  0.38873  0.08889  1.0000
  O   O13       1.0  0.27785  0.99672  0.55415  1.0000
  O   O14       1.0  0.72213  0.00327  0.44585  1.0000
  O   O15       1.0  0.50799  0.30217  0.88602  1.0000
  O   O16       1.0  0.49200  0.69783  0.11398  1.0000
