data_image0
_chemical_formula_structural       Ag8H32C16N8O16
_chemical_formula_sum              "Ag8 H32 C16 N8 O16"
_cell_length_a       6.13266
_cell_length_b       8.84722
_cell_length_c       15.1216
_cell_angle_alpha    97.3547
_cell_angle_beta     89.9995
_cell_angle_gamma    89.9994

_space_group_name_H-M_alt    "P 1"
_space_group_IT_number       1

loop_
  _space_group_symop_operation_xyz
  'x, y, z'

loop_
  _atom_site_type_symbol
  _atom_site_label
  _atom_site_symmetry_multiplicity
  _atom_site_fract_x
  _atom_site_fract_y
  _atom_site_fract_z
  _atom_site_occupancy
  Ag  Ag1       1.0  0.74204  0.34359  0.08345  1.0000
  Ag  Ag2       1.0  0.75792  0.84358  0.58345  1.0000
  Ag  Ag3       1.0  0.25794  0.65641  0.91655  1.0000
  Ag  Ag4       1.0  0.24206  0.15642  0.41656  1.0000
  Ag  Ag5       1.0  0.64120  0.67065  0.73917  1.0000
  Ag  Ag6       1.0  0.85881  0.17065  0.23917  1.0000
  Ag  Ag7       1.0  0.35879  0.32935  0.26082  1.0000
  Ag  Ag8       1.0  0.14121  0.82934  0.76083  1.0000
  H   H1        1.0  0.78623  0.04896  0.04607  1.0000
  H   H2        1.0  0.71377  0.54895  0.54605  1.0000
  H   H3        1.0  0.21378  0.95104  0.95394  1.0000
  H   H4        1.0  0.28622  0.45104  0.45394  1.0000
  H   H5        1.0  0.93893  0.08538  0.67714  1.0000
  H   H6        1.0  0.56104  0.58538  0.17714  1.0000
  H   H7        1.0  0.06106  0.91463  0.32286  1.0000
  H   H8        1.0  0.43895  0.41463  0.82286  1.0000
  H   H9        1.0  0.70451  0.03900  0.72073  1.0000
  H   H10       1.0  0.79546  0.53900  0.22073  1.0000
  H   H11       1.0  0.29548  0.96101  0.27927  1.0000
  H   H12       1.0  0.20452  0.46101  0.77927  1.0000
  H   H13       1.0  0.50084  0.15840  0.61278  1.0000
  H   H14       1.0  0.99914  0.65840  0.11278  1.0000
  H   H15       1.0  0.49915  0.84160  0.38722  1.0000
  H   H16       1.0  0.00086  0.34159  0.88722  1.0000
  H   H17       1.0  0.74848  0.20609  0.56289  1.0000
  H   H18       1.0  0.75150  0.70611  0.06290  1.0000
  H   H19       1.0  0.25151  0.79390  0.43710  1.0000
  H   H20       1.0  0.24851  0.29389  0.93710  1.0000
  H   H21       1.0  0.69343  0.16515  0.87436  1.0000
  H   H22       1.0  0.80657  0.66516  0.37436  1.0000
  H   H23       1.0  0.30657  0.83484  0.12565  1.0000
  H   H24       1.0  0.19341  0.33484  0.62564  1.0000
  H   H25       1.0  0.48595  0.10883  0.94423  1.0000
  H   H26       1.0  0.01407  0.60885  0.44422  1.0000
  H   H27       1.0  0.51406  0.89115  0.05577  1.0000
  H   H28       1.0  0.98592  0.39116  0.55577  1.0000
  H   H29       1.0  0.95633  0.13253  0.98601  1.0000
  H   H30       1.0  0.54368  0.63251  0.48599  1.0000
  H   H31       1.0  0.04368  0.86748  0.01400  1.0000
  H   H32       1.0  0.45632  0.36749  0.51400  1.0000
  C   C1        1.0  0.67314  0.18710  0.62634  1.0000
  C   C2        1.0  0.82684  0.68711  0.12635  1.0000
  C   C3        1.0  0.32686  0.81290  0.37366  1.0000
  C   C4        1.0  0.17316  0.31289  0.87366  1.0000
  C   C5        1.0  0.67504  0.33481  0.69123  1.0000
  C   C6        1.0  0.82495  0.83481  0.19123  1.0000
  C   C7        1.0  0.32494  0.66519  0.30877  1.0000
  C   C8        1.0  0.17508  0.16519  0.80876  1.0000
  C   C9        1.0  0.68140  0.92455  0.88495  1.0000
  C   C10       1.0  0.81863  0.42456  0.38495  1.0000
  C   C11       1.0  0.31863  0.07544  0.11506  1.0000
  C   C12       1.0  0.18137  0.57545  0.61506  1.0000
  C   C13       1.0  0.65778  0.09072  0.92520  1.0000
  C   C14       1.0  0.84222  0.59073  0.42519  1.0000
  C   C15       1.0  0.34223  0.90927  0.07480  1.0000
  C   C16       1.0  0.15777  0.40928  0.57480  1.0000
  N   N1        1.0  0.79498  0.13204  0.00423  1.0000
  N   N2        1.0  0.70502  0.63205  0.50422  1.0000
  N   N3        1.0  0.20503  0.86795  0.99577  1.0000
  N   N4        1.0  0.29497  0.36796  0.49578  1.0000
  N   N5        1.0  0.77834  0.05826  0.66183  1.0000
  N   N6        1.0  0.72163  0.55825  0.16183  1.0000
  N   N7        1.0  0.22165  0.94174  0.33817  1.0000
  N   N8        1.0  0.27835  0.44175  0.83817  1.0000
  O   O1        1.0  0.70937  0.33254  0.77262  1.0000
  O   O2        1.0  0.79060  0.83257  0.27263  1.0000
  O   O3        1.0  0.29059  0.66745  0.22738  1.0000
  O   O4        1.0  0.20942  0.16744  0.72737  1.0000
  O   O5        1.0  0.62990  0.45554  0.65459  1.0000
  O   O6        1.0  0.87012  0.95553  0.15460  1.0000
  O   O7        1.0  0.37009  0.54446  0.34541  1.0000
  O   O8        1.0  0.12992  0.04447  0.84540  1.0000
  O   O9        1.0  0.61585  0.89886  0.80300  1.0000
  O   O10       1.0  0.88420  0.39887  0.30300  1.0000
  O   O11       1.0  0.38421  0.10113  0.19700  1.0000
  O   O12       1.0  0.11579  0.60113  0.69701  1.0000
  O   O13       1.0  0.75068  0.82626  0.93046  1.0000
  O   O14       1.0  0.74934  0.32628  0.43046  1.0000
  O   O15       1.0  0.24934  0.17373  0.06954  1.0000
  O   O16       1.0  0.25065  0.67373  0.56955  1.0000
