data_image0
_chemical_formula_structural       Ag4H28C16N8O12
_chemical_formula_sum              "Ag4 H28 C16 N8 O12"
_cell_length_a       5.42822
_cell_length_b       5.4282
_cell_length_c       21.391
_cell_angle_alpha    89.9998
_cell_angle_beta     90.0006
_cell_angle_gamma    93.6045

_space_group_name_H-M_alt    "P 1"
_space_group_IT_number       1

loop_
  _space_group_symop_operation_xyz
  'x, y, z'

loop_
  _atom_site_type_symbol
  _atom_site_label
  _atom_site_symmetry_multiplicity
  _atom_site_fract_x
  _atom_site_fract_y
  _atom_site_fract_z
  _atom_site_occupancy
  Ag  Ag1       1.0  0.32226  0.44429  0.42432  1.0000
  Ag  Ag2       1.0  0.44429  0.32229  0.57568  1.0000
  Ag  Ag3       1.0  0.67774  0.55571  0.92431  1.0000
  Ag  Ag4       1.0  0.55572  0.67772  0.07568  1.0000
  H   H1        1.0  0.87275  0.69518  0.44204  1.0000
  H   H2        1.0  0.69516  0.87277  0.55796  1.0000
  H   H3        1.0  0.12724  0.30482  0.94204  1.0000
  H   H4        1.0  0.30484  0.12723  0.05796  1.0000
  H   H5        1.0  0.48252  0.85636  0.47371  1.0000
  H   H6        1.0  0.85635  0.48255  0.52629  1.0000
  H   H7        1.0  0.51748  0.14364  0.97371  1.0000
  H   H8        1.0  0.14365  0.51745  0.02629  1.0000
  H   H9        1.0  0.41462  0.91565  0.40175  1.0000
  H   H10       1.0  0.91565  0.41464  0.59825  1.0000
  H   H11       1.0  0.58537  0.08435  0.90175  1.0000
  H   H12       1.0  0.08435  0.58536  0.09825  1.0000
  H   H13       1.0  0.01426  0.73349  0.33624  1.0000
  H   H14       1.0  0.73347  0.01427  0.66377  1.0000
  H   H15       1.0  0.98573  0.26650  0.83623  1.0000
  H   H16       1.0  0.26653  0.98573  0.16377  1.0000
  H   H17       1.0  0.73807  0.54102  0.33974  1.0000
  H   H18       1.0  0.54101  0.73807  0.66026  1.0000
  H   H19       1.0  0.26192  0.45898  0.83974  1.0000
  H   H20       1.0  0.45899  0.26192  0.16026  1.0000
  H   H21       1.0  0.67298  0.92930  0.20148  1.0000
  H   H22       1.0  0.92928  0.67298  0.79852  1.0000
  H   H23       1.0  0.32703  0.07069  0.70148  1.0000
  H   H24       1.0  0.07071  0.32702  0.29852  1.0000
  H   H25       1.0  0.78674  0.64908  0.22492  1.0000
  H   H26       1.0  0.64907  0.78673  0.77508  1.0000
  H   H27       1.0  0.21327  0.35091  0.72492  1.0000
  H   H28       1.0  0.35093  0.21327  0.27508  1.0000
  C   C1        1.0  0.89386  0.07976  0.42490  1.0000
  C   C2        1.0  0.07974  0.89391  0.57511  1.0000
  C   C3        1.0  0.10613  0.92024  0.92490  1.0000
  C   C4        1.0  0.92026  0.10610  0.07510  1.0000
  C   C5        1.0  0.77407  0.82047  0.41174  1.0000
  C   C6        1.0  0.82047  0.77409  0.58826  1.0000
  C   C7        1.0  0.22593  0.17953  0.91174  1.0000
  C   C8        1.0  0.17953  0.22591  0.08826  1.0000
  C   C9        1.0  0.81447  0.73297  0.34502  1.0000
  C   C10       1.0  0.73296  0.81447  0.65499  1.0000
  C   C11       1.0  0.18553  0.26704  0.84502  1.0000
  C   C12       1.0  0.26704  0.18553  0.15498  1.0000
  C   C13       1.0  0.70487  0.89532  0.29581  1.0000
  C   C14       1.0  0.89532  0.70487  0.70419  1.0000
  C   C15       1.0  0.29515  0.10466  0.79582  1.0000
  C   C16       1.0  0.10466  0.29513  0.20418  1.0000
  N   N1        1.0  0.51134  0.79809  0.42872  1.0000
  N   N2        1.0  0.79808  0.51137  0.57128  1.0000
  N   N3        1.0  0.48866  0.20192  0.92872  1.0000
  N   N4        1.0  0.20192  0.48863  0.07127  1.0000
  N   N5        1.0  0.71309  0.81380  0.23690  1.0000
  N   N6        1.0  0.81379  0.71308  0.76311  1.0000
  N   N7        1.0  0.28692  0.18621  0.73690  1.0000
  N   N8        1.0  0.18621  0.28691  0.26311  1.0000
  O   O1        1.0  0.11237  0.11745  0.40145  1.0000
  O   O2        1.0  0.11744  0.11241  0.59856  1.0000
  O   O3        1.0  0.88763  0.88254  0.90145  1.0000
  O   O4        1.0  0.88256  0.88759  0.09855  1.0000
  O   O5        1.0  0.78577  0.22739  0.45855  1.0000
  O   O6        1.0  0.22738  0.78583  0.54145  1.0000
  O   O7        1.0  0.21423  0.77261  0.95855  1.0000
  O   O8        1.0  0.77263  0.21418  0.04145  1.0000
  O   O9        1.0  0.61667  0.09573  0.31067  1.0000
  O   O10       1.0  0.09571  0.61668  0.68933  1.0000
  O   O11       1.0  0.38334  0.90430  0.81067  1.0000
  O   O12       1.0  0.90430  0.38332  0.18933  1.0000
