data_image0
_chemical_formula_structural       Cu4H28C36N24O8
_chemical_formula_sum              "Cu4 H28 C36 N24 O8"
_cell_length_a       9.18047
_cell_length_b       10.2844
_cell_length_c       12.2009
_cell_angle_alpha    90
_cell_angle_beta     106.602
_cell_angle_gamma    89.9998

_space_group_name_H-M_alt    "P 1"
_space_group_IT_number       1

loop_
  _space_group_symop_operation_xyz
  'x, y, z'

loop_
  _atom_site_type_symbol
  _atom_site_label
  _atom_site_symmetry_multiplicity
  _atom_site_fract_x
  _atom_site_fract_y
  _atom_site_fract_z
  _atom_site_occupancy
  Cu  Cu1       1.0  0.92518  0.41680  0.10123  1.0000
  Cu  Cu2       1.0  0.57482  0.91680  0.89877  1.0000
  Cu  Cu3       1.0  0.07482  0.58320  0.89877  1.0000
  Cu  Cu4       1.0  0.42518  0.08320  0.10123  1.0000
  H   H1        1.0  0.61463  0.43493  0.09983  1.0000
  H   H2        1.0  0.88537  0.93493  0.90016  1.0000
  H   H3        1.0  0.38537  0.56507  0.90016  1.0000
  H   H4        1.0  0.11463  0.06507  0.09984  1.0000
  H   H5        1.0  0.47203  0.41897  0.24430  1.0000
  H   H6        1.0  0.02798  0.91898  0.75569  1.0000
  H   H7        1.0  0.52798  0.58103  0.75570  1.0000
  H   H8        1.0  0.97202  0.08103  0.24430  1.0000
  H   H9        1.0  0.49037  0.83595  0.28322  1.0000
  H   H10       1.0  0.00963  0.33595  0.71678  1.0000
  H   H11       1.0  0.50964  0.16405  0.71679  1.0000
  H   H12       1.0  0.99037  0.66405  0.28322  1.0000
  H   H13       1.0  0.62874  0.85304  0.13616  1.0000
  H   H14       1.0  0.87126  0.35304  0.86384  1.0000
  H   H15       1.0  0.37126  0.14696  0.86384  1.0000
  H   H16       1.0  0.12874  0.64696  0.13615  1.0000
  H   H17       1.0  0.78693  0.44030  0.46925  1.0000
  H   H18       1.0  0.71307  0.94030  0.53075  1.0000
  H   H19       1.0  0.21307  0.55970  0.53076  1.0000
  H   H20       1.0  0.28692  0.05971  0.46925  1.0000
  H   H21       1.0  0.89813  0.29504  0.49005  1.0000
  H   H22       1.0  0.60187  0.79504  0.50995  1.0000
  H   H23       1.0  0.10187  0.70496  0.50995  1.0000
  H   H24       1.0  0.39813  0.20496  0.49005  1.0000
  H   H25       1.0  0.71435  0.29790  0.38825  1.0000
  H   H26       1.0  0.78565  0.79789  0.61176  1.0000
  H   H27       1.0  0.28565  0.70211  0.61176  1.0000
  H   H28       1.0  0.21435  0.20210  0.38824  1.0000
  C   C1        1.0  0.63118  0.64525  0.10779  1.0000
  C   C2        1.0  0.86882  0.14525  0.89221  1.0000
  C   C3        1.0  0.36882  0.35475  0.89221  1.0000
  C   C4        1.0  0.13118  0.85475  0.10779  1.0000
  C   C5        1.0  0.58720  0.52291  0.13921  1.0000
  C   C6        1.0  0.91280  0.02291  0.86079  1.0000
  C   C7        1.0  0.41280  0.47709  0.86079  1.0000
  C   C8        1.0  0.08720  0.97709  0.13921  1.0000
  C   C9        1.0  0.50874  0.51282  0.22064  1.0000
  C   C10       1.0  0.99126  0.01283  0.77936  1.0000
  C   C11       1.0  0.49126  0.48717  0.77936  1.0000
  C   C12       1.0  0.00874  0.98717  0.22064  1.0000
  C   C13       1.0  0.47618  0.62623  0.27221  1.0000
  C   C14       1.0  0.02382  0.12623  0.72779  1.0000
  C   C15       1.0  0.52382  0.37377  0.72779  1.0000
  C   C16       1.0  0.97618  0.87377  0.27220  1.0000
  C   C17       1.0  0.51825  0.74902  0.24262  1.0000
  C   C18       1.0  0.98175  0.24903  0.75739  1.0000
  C   C19       1.0  0.48175  0.25097  0.75739  1.0000
  C   C20       1.0  0.01825  0.75097  0.24262  1.0000
  C   C21       1.0  0.59514  0.75788  0.15996  1.0000
  C   C22       1.0  0.90486  0.25788  0.84004  1.0000
  C   C23       1.0  0.40486  0.24212  0.84004  1.0000
  C   C24       1.0  0.09515  0.74212  0.15996  1.0000
  C   C25       1.0  0.71526  0.65491  0.02308  1.0000
  C   C26       1.0  0.78474  0.15491  0.97693  1.0000
  C   C27       1.0  0.28475  0.34509  0.97693  1.0000
  C   C28       1.0  0.21525  0.84509  0.02307  1.0000
  C   C29       1.0  0.88412  0.39290  0.33745  1.0000
  C   C30       1.0  0.61587  0.89290  0.66255  1.0000
  C   C31       1.0  0.11588  0.60709  0.66255  1.0000
  C   C32       1.0  0.38412  0.10710  0.33745  1.0000
  C   C33       1.0  0.81757  0.35511  0.42619  1.0000
  C   C34       1.0  0.68243  0.85511  0.57381  1.0000
  C   C35       1.0  0.18244  0.64490  0.57381  1.0000
  C   C36       1.0  0.31756  0.14489  0.42619  1.0000
  N   N1        1.0  0.82186  0.56934  0.01174  1.0000
  N   N2        1.0  0.67814  0.06934  0.98826  1.0000
  N   N3        1.0  0.17814  0.43066  0.98826  1.0000
  N   N4        1.0  0.32186  0.93066  0.01174  1.0000
  N   N5        1.0  0.87321  0.61721  0.92643  1.0000
  N   N6        1.0  0.62679  0.11721  0.07357  1.0000
  N   N7        1.0  0.12678  0.38279  0.07357  1.0000
  N   N8        1.0  0.37321  0.88279  0.92643  1.0000
  N   N9        1.0  0.80009  0.72520  0.88598  1.0000
  N   N10       1.0  0.69991  0.22520  0.11402  1.0000
  N   N11       1.0  0.19990  0.27480  0.11402  1.0000
  N   N12       1.0  0.30009  0.77480  0.88598  1.0000
  N   N13       1.0  0.70136  0.75182  0.94555  1.0000
  N   N14       1.0  0.79864  0.25182  0.05445  1.0000
  N   N15       1.0  0.29864  0.24818  0.05446  1.0000
  N   N16       1.0  0.20136  0.74818  0.94554  1.0000
  N   N17       1.0  0.39628  0.61595  0.35960  1.0000
  N   N18       1.0  0.10373  0.11595  0.64040  1.0000
  N   N19       1.0  0.60373  0.38405  0.64040  1.0000
  N   N20       1.0  0.89627  0.88404  0.35960  1.0000
  N   N21       1.0  0.93295  0.42110  0.26229  1.0000
  N   N22       1.0  0.56705  0.92110  0.73770  1.0000
  N   N23       1.0  0.06705  0.57891  0.73770  1.0000
  N   N24       1.0  0.43295  0.07890  0.26229  1.0000
  O   O1        1.0  0.37595  0.71767  0.40906  1.0000
  O   O2        1.0  0.12405  0.21768  0.59094  1.0000
  O   O3        1.0  0.62405  0.28233  0.59094  1.0000
  O   O4        1.0  0.87595  0.78233  0.40906  1.0000
  O   O5        1.0  0.35194  0.50688  0.38050  1.0000
  O   O6        1.0  0.14806  0.00689  0.61950  1.0000
  O   O7        1.0  0.64806  0.49312  0.61950  1.0000
  O   O8        1.0  0.85194  0.99312  0.38051  1.0000
