data_image0
_chemical_formula_structural       Zn2H24C32N20O8
_chemical_formula_sum              "Zn2 H24 C32 N20 O8"
_cell_length_a       5.52278
_cell_length_b       9.58284
_cell_length_c       17.5327
_cell_angle_alpha    89.999
_cell_angle_beta     89.9988
_cell_angle_gamma    92.4284

_space_group_name_H-M_alt    "P 1"
_space_group_IT_number       1

loop_
  _space_group_symop_operation_xyz
  'x, y, z'

loop_
  _atom_site_type_symbol
  _atom_site_label
  _atom_site_symmetry_multiplicity
  _atom_site_fract_x
  _atom_site_fract_y
  _atom_site_fract_z
  _atom_site_occupancy
  Zn  Zn1       1.0  0.15445  0.10306  0.89091  1.0000
  Zn  Zn2       1.0  0.15445  0.60305  0.10910  1.0000
  H   H1        1.0  0.74428  0.84613  0.07327  1.0000
  H   H2        1.0  0.74429  0.34615  0.92674  1.0000
  H   H3        1.0  0.76273  0.99487  0.01435  1.0000
  H   H4        1.0  0.76274  0.49489  0.98565  1.0000
  H   H5        1.0  0.67439  0.16496  0.10572  1.0000
  H   H6        1.0  0.67442  0.66497  0.89428  1.0000
  H   H7        1.0  0.82058  0.32021  0.21173  1.0000
  H   H8        1.0  0.82062  0.82022  0.78826  1.0000
  H   H9        1.0  0.39901  0.04432  0.25761  1.0000
  H   H10       1.0  0.39903  0.54431  0.74239  1.0000
  H   H11       1.0  0.26175  0.89301  0.15005  1.0000
  H   H12       1.0  0.26177  0.39302  0.84996  1.0000
  H   H13       1.0  0.10976  0.18834  0.70901  1.0000
  H   H14       1.0  0.10974  0.68836  0.29099  1.0000
  H   H15       1.0  0.92118  0.32845  0.69247  1.0000
  H   H16       1.0  0.92114  0.82846  0.30753  1.0000
  H   H17       1.0  0.51607  0.03899  0.65843  1.0000
  H   H18       1.0  0.51608  0.53897  0.34157  1.0000
  H   H19       1.0  0.40906  0.94788  0.53135  1.0000
  H   H20       1.0  0.40907  0.44785  0.46866  1.0000
  H   H21       1.0  0.04659  0.15707  0.43643  1.0000
  H   H22       1.0  0.04660  0.65706  0.56357  1.0000
  H   H23       1.0  0.15637  0.24984  0.56504  1.0000
  H   H24       1.0  0.15636  0.74983  0.43496  1.0000
  C   C1        1.0  0.06502  0.86678  0.00827  1.0000
  C   C2        1.0  0.06503  0.36679  0.99173  1.0000
  C   C3        1.0  0.86885  0.93082  0.05292  1.0000
  C   C4        1.0  0.86887  0.43083  0.94709  1.0000
  C   C5        1.0  0.95914  0.01925  0.11990  1.0000
  C   C6        1.0  0.95916  0.51926  0.88010  1.0000
  C   C7        1.0  0.83384  0.13891  0.13851  1.0000
  C   C8        1.0  0.83387  0.63892  0.86149  1.0000
  C   C9        1.0  0.91407  0.22606  0.19744  1.0000
  C   C10       1.0  0.91410  0.72607  0.80256  1.0000
  C   C11       1.0  0.11954  0.19141  0.23839  1.0000
  C   C12       1.0  0.11957  0.69141  0.76160  1.0000
  C   C13       1.0  0.24225  0.07018  0.22352  1.0000
  C   C14       1.0  0.24228  0.57018  0.77648  1.0000
  C   C15       1.0  0.16140  0.98536  0.16348  1.0000
  C   C16       1.0  0.16143  0.48537  0.83652  1.0000
  C   C17       1.0  0.76837  0.17219  0.76394  1.0000
  C   C18       1.0  0.76836  0.67218  0.23606  1.0000
  C   C19       1.0  0.92081  0.21350  0.69724  1.0000
  C   C20       1.0  0.92079  0.71350  0.30276  1.0000
  C   C21       1.0  0.84379  0.15196  0.62096  1.0000
  C   C22       1.0  0.84379  0.65195  0.37904  1.0000
  C   C23       1.0  0.63500  0.06580  0.61077  1.0000
  C   C24       1.0  0.63500  0.56579  0.38923  1.0000
  C   C25       1.0  0.57139  0.01454  0.53905  1.0000
  C   C26       1.0  0.57140  0.51452  0.46095  1.0000
  C   C27       1.0  0.71895  0.05012  0.47695  1.0000
  C   C28       1.0  0.71895  0.55010  0.52305  1.0000
  C   C29       1.0  0.93124  0.13366  0.48545  1.0000
  C   C30       1.0  0.93123  0.63365  0.51456  1.0000
  C   C31       1.0  0.99170  0.18433  0.55750  1.0000
  C   C32       1.0  0.99170  0.68432  0.44250  1.0000
  N   N1        1.0  0.17152  0.92084  0.94536  1.0000
  N   N2        1.0  0.17152  0.42084  0.05464  1.0000
  N   N3        1.0  0.34342  0.83199  0.92325  1.0000
  N   N4        1.0  0.34341  0.33198  0.07675  1.0000
  N   N5        1.0  0.34292  0.72795  0.97058  1.0000
  N   N6        1.0  0.34290  0.22795  0.02943  1.0000
  N   N7        1.0  0.17006  0.74657  0.02458  1.0000
  N   N8        1.0  0.17005  0.24658  0.97542  1.0000
  N   N9        1.0  0.20991  0.28613  0.29813  1.0000
  N   N10       1.0  0.20992  0.78612  0.70185  1.0000
  N   N11       1.0  0.47143  0.13136  0.83865  1.0000
  N   N12       1.0  0.47143  0.63135  0.16135  1.0000
  N   N13       1.0  0.66454  0.10075  0.87784  1.0000
  N   N14       1.0  0.66454  0.60074  0.12216  1.0000
  N   N15       1.0  0.85430  0.12543  0.83159  1.0000
  N   N16       1.0  0.85429  0.62543  0.16841  1.0000
  N   N17       1.0  0.52642  0.17684  0.76814  1.0000
  N   N18       1.0  0.52641  0.67684  0.23186  1.0000
  N   N19       1.0  0.64879  0.99881  0.40157  1.0000
  N   N20       1.0  0.64880  0.49879  0.59844  1.0000
  O   O1        1.0  0.36357  0.24396  0.34349  1.0000
  O   O2        1.0  0.36358  0.74393  0.65649  1.0000
  O   O3        1.0  0.12950  0.40561  0.30029  1.0000
  O   O4        1.0  0.12950  0.90559  0.69968  1.0000
  O   O5        1.0  0.45773  0.92635  0.39488  1.0000
  O   O6        1.0  0.45774  0.42633  0.60512  1.0000
  O   O7        1.0  0.78393  0.03029  0.34662  1.0000
  O   O8        1.0  0.78393  0.53028  0.65339  1.0000
