data_image0
_chemical_formula_structural       Cu2H18C28S2N12
_chemical_formula_sum              "Cu2 H18 C28 S2 N12"
_cell_length_a       5.71395
_cell_length_b       5.71414
_cell_length_c       20.6969
_cell_angle_alpha    89.9989
_cell_angle_beta     89.9982
_cell_angle_gamma    101.024

_space_group_name_H-M_alt    "P 1"
_space_group_IT_number       1

loop_
  _space_group_symop_operation_xyz
  'x, y, z'

loop_
  _atom_site_type_symbol
  _atom_site_label
  _atom_site_symmetry_multiplicity
  _atom_site_fract_x
  _atom_site_fract_y
  _atom_site_fract_z
  _atom_site_occupancy
  Cu  Cu1       1.0  0.60808  0.61452  0.75000  1.0000
  Cu  Cu2       1.0  0.61440  0.60808  0.25000  1.0000
  H   H1        1.0  0.97678  0.94343  0.68846  1.0000
  H   H2        1.0  0.94341  0.97667  0.31152  1.0000
  H   H3        1.0  0.94341  0.97670  0.18846  1.0000
  H   H4        1.0  0.97676  0.94345  0.81153  1.0000
  H   H5        1.0  0.31268  0.93871  0.61186  1.0000
  H   H6        1.0  0.93873  0.31257  0.38813  1.0000
  H   H7        1.0  0.93871  0.31263  0.11186  1.0000
  H   H8        1.0  0.31265  0.93876  0.88814  1.0000
  H   H9        1.0  0.99619  0.21136  0.56610  1.0000
  H   H10       1.0  0.21135  0.99620  0.43390  1.0000
  H   H11       1.0  0.21135  0.99622  0.06611  1.0000
  H   H12       1.0  0.99619  0.21141  0.93391  1.0000
  H   H13       1.0  0.67828  0.23900  0.64710  1.0000
  H   H14       1.0  0.23894  0.67830  0.35290  1.0000
  H   H15       1.0  0.23895  0.67833  0.14711  1.0000
  H   H16       1.0  0.67830  0.23903  0.85291  1.0000
  H   H17       1.0  0.89459  0.89441  0.50000  1.0000
  H   H18       1.0  0.89453  0.89452  0.00001  1.0000
  C   C1        1.0  0.41944  0.08694  0.75000  1.0000
  C   C2        1.0  0.08683  0.41951  0.25000  1.0000
  C   C3        1.0  0.98789  0.78316  0.66092  1.0000
  C   C4        1.0  0.78313  0.98782  0.33907  1.0000
  C   C5        1.0  0.78313  0.98784  0.16092  1.0000
  C   C6        1.0  0.98790  0.78321  0.83908  1.0000
  C   C7        1.0  0.17351  0.78148  0.61794  1.0000
  C   C8        1.0  0.78148  0.17344  0.38205  1.0000
  C   C9        1.0  0.78148  0.17349  0.11795  1.0000
  C   C10       1.0  0.17349  0.78151  0.88205  1.0000
  C   C11       1.0  0.18221  0.57359  0.58281  1.0000
  C   C12       1.0  0.57363  0.18213  0.41719  1.0000
  C   C13       1.0  0.57361  0.18220  0.08280  1.0000
  C   C14       1.0  0.18221  0.57367  0.91719  1.0000
  C   C15       1.0  0.99803  0.37612  0.59253  1.0000
  C   C16       1.0  0.37611  0.99800  0.40747  1.0000
  C   C17       1.0  0.37608  0.99802  0.09253  1.0000
  C   C18       1.0  0.99805  0.37619  0.90748  1.0000
  C   C19       1.0  0.82053  0.39127  0.63736  1.0000
  C   C20       1.0  0.39120  0.82052  0.36264  1.0000
  C   C21       1.0  0.39121  0.82055  0.13736  1.0000
  C   C22       1.0  0.82054  0.39128  0.86264  1.0000
  C   C23       1.0  0.38238  0.56826  0.53819  1.0000
  C   C24       1.0  0.56833  0.38226  0.46182  1.0000
  C   C25       1.0  0.56830  0.38233  0.03819  1.0000
  C   C26       1.0  0.38234  0.56834  0.96182  1.0000
  C   C27       1.0  0.74413  0.74397  0.50001  1.0000
  C   C28       1.0  0.74408  0.74408  0.00001  1.0000
  S   S1        1.0  0.28083  0.31197  0.75000  1.0000
  S   S2        1.0  0.31189  0.28089  0.25000  1.0000
  N   N1        1.0  0.51488  0.92014  0.75000  1.0000
  N   N2        1.0  0.92009  0.51497  0.25000  1.0000
  N   N3        1.0  0.81492  0.59052  0.67203  1.0000
  N   N4        1.0  0.59047  0.81490  0.32795  1.0000
  N   N5        1.0  0.59048  0.81494  0.17204  1.0000
  N   N6        1.0  0.81493  0.59055  0.82796  1.0000
  N   N7        1.0  0.37647  0.37639  0.50000  1.0000
  N   N8        1.0  0.37644  0.37648  0.00000  1.0000
  N   N9        1.0  0.56213  0.76041  0.53893  1.0000
  N   N10       1.0  0.76053  0.56198  0.46107  1.0000
  N   N11       1.0  0.76050  0.56207  0.03893  1.0000
  N   N12       1.0  0.56208  0.76050  0.96108  1.0000
