data_image0
_chemical_formula_structural       Cu2H18C28S2N12
_chemical_formula_sum              "Cu2 H18 C28 S2 N12"
_cell_length_a       5.65035
_cell_length_b       8.34119
_cell_length_c       14.1069
_cell_angle_alpha    85.9074
_cell_angle_beta     82.7844
_cell_angle_gamma    86.3158

_space_group_name_H-M_alt    "P 1"
_space_group_IT_number       1

loop_
  _space_group_symop_operation_xyz
  'x, y, z'

loop_
  _atom_site_type_symbol
  _atom_site_label
  _atom_site_symmetry_multiplicity
  _atom_site_fract_x
  _atom_site_fract_y
  _atom_site_fract_z
  _atom_site_occupancy
  Cu  Cu1       1.0  0.40268  0.65417  0.49537  1.0000
  Cu  Cu2       1.0  0.59729  0.34584  0.50462  1.0000
  H   H1        1.0  0.34152  0.99293  0.41851  1.0000
  H   H2        1.0  0.65846  0.00708  0.58148  1.0000
  H   H3        1.0  0.58751  0.18661  0.31205  1.0000
  H   H4        1.0  0.41250  0.81340  0.68795  1.0000
  H   H5        1.0  0.14545  0.80998  0.27856  1.0000
  H   H6        1.0  0.85454  0.19001  0.72145  1.0000
  H   H7        1.0  0.87652  0.62980  0.38418  1.0000
  H   H8        1.0  0.12345  0.37019  0.61582  1.0000
  H   H9        1.0  0.55886  0.13586  0.09804  1.0000
  H   H10       1.0  0.44115  0.86414  0.90198  1.0000
  H   H11       1.0  0.31506  0.61595  0.03996  1.0000
  H   H12       1.0  0.68496  0.38406  0.96003  1.0000
  H   H13       1.0  0.14441  0.89791  0.00978  1.0000
  H   H14       1.0  0.85559  0.10210  0.99022  1.0000
  H   H15       1.0  0.49445  0.79329  0.16265  1.0000
  H   H16       1.0  0.50556  0.20670  0.83735  1.0000
  H   H17       1.0  0.63664  0.50665  0.20024  1.0000
  H   H18       1.0  0.36340  0.49335  0.79976  1.0000
  C   C1        1.0  0.88804  0.62467  0.58230  1.0000
  C   C2        1.0  0.11195  0.37533  0.41770  1.0000
  C   C3        1.0  0.52072  0.95692  0.38619  1.0000
  C   C4        1.0  0.47926  0.04308  0.61381  1.0000
  C   C5        1.0  0.65766  0.06426  0.32684  1.0000
  C   C6        1.0  0.34234  0.93574  0.67316  1.0000
  C   C7        1.0  0.88672  0.01387  0.28624  1.0000
  C   C8        1.0  0.11328  0.98613  0.71376  1.0000
  C   C9        1.0  0.96909  0.85543  0.30848  1.0000
  C   C10       1.0  0.03090  0.14456  0.69152  1.0000
  C   C11       1.0  0.81995  0.75465  0.36751  1.0000
  C   C12       1.0  0.18002  0.24534  0.63249  1.0000
  C   C13       1.0  0.03361  0.12486  0.22084  1.0000
  C   C14       1.0  0.96639  0.87514  0.77916  1.0000
  C   C15       1.0  0.08373  0.37326  0.14568  1.0000
  C   C16       1.0  0.91629  0.62674  0.85432  1.0000
  C   C17       1.0  0.37968  0.17777  0.12805  1.0000
  C   C18       1.0  0.62032  0.82223  0.87196  1.0000
  C   C19       1.0  0.98921  0.53986  0.12416  1.0000
  C   C20       1.0  0.01081  0.46014  0.87585  1.0000
  C   C21       1.0  0.13304  0.65147  0.06917  1.0000
  C   C22       1.0  0.86697  0.34854  0.93084  1.0000
  C   C23       1.0  0.03724  0.80743  0.05201  1.0000
  C   C24       1.0  0.96276  0.19258  0.94799  1.0000
  C   C25       1.0  0.67520  0.74877  0.13650  1.0000
  C   C26       1.0  0.32481  0.25123  0.86350  1.0000
  C   C27       1.0  0.75429  0.59015  0.15794  1.0000
  C   C28       1.0  0.24573  0.40985  0.84206  1.0000
  S   S1        1.0  0.62475  0.55586  0.62007  1.0000
  S   S2        1.0  0.37525  0.44413  0.37991  1.0000
  N   N1        1.0  0.07898  0.67075  0.55310  1.0000
  N   N2        1.0  0.92102  0.32927  0.44690  1.0000
  N   N3        1.0  0.59816  0.80308  0.40661  1.0000
  N   N4        1.0  0.40181  0.19692  0.59339  1.0000
  N   N5        1.0  0.94060  0.27458  0.20266  1.0000
  N   N6        1.0  0.05940  0.72542  0.79734  1.0000
  N   N7        1.0  0.30816  0.33076  0.10735  1.0000
  N   N8        1.0  0.69186  0.66924  0.89266  1.0000
  N   N9        1.0  0.25230  0.06936  0.18364  1.0000
  N   N10       1.0  0.74770  0.93064  0.81636  1.0000
  N   N11       1.0  0.81238  0.85707  0.08471  1.0000
  N   N12       1.0  0.18761  0.14293  0.91528  1.0000
