data_image0
_chemical_formula_structural       Cu4H20C24N4O12
_chemical_formula_sum              "Cu4 H20 C24 N4 O12"
_cell_length_a       3.60227
_cell_length_b       12.9753
_cell_length_c       15.588
_cell_angle_alpha    89.9996
_cell_angle_beta     89.9993
_cell_angle_gamma    98.4787

_space_group_name_H-M_alt    "P 1"
_space_group_IT_number       1

loop_
  _space_group_symop_operation_xyz
  'x, y, z'

loop_
  _atom_site_type_symbol
  _atom_site_label
  _atom_site_symmetry_multiplicity
  _atom_site_fract_x
  _atom_site_fract_y
  _atom_site_fract_z
  _atom_site_occupancy
  Cu  Cu1       1.0  0.74609  0.50807  0.92051  1.0000
  Cu  Cu2       1.0  0.24611  0.00808  0.57949  1.0000
  Cu  Cu3       1.0  0.25389  0.49193  0.07949  1.0000
  Cu  Cu4       1.0  0.75393  0.99193  0.42051  1.0000
  H   H1        1.0  0.67560  0.35445  0.01017  1.0000
  H   H2        1.0  0.17561  0.85446  0.48983  1.0000
  H   H3        1.0  0.32441  0.64554  0.98983  1.0000
  H   H4        1.0  0.82442  0.14555  0.51017  1.0000
  H   H5        1.0  0.83358  0.73056  0.89959  1.0000
  H   H6        1.0  0.33359  0.23057  0.60041  1.0000
  H   H7        1.0  0.16642  0.26944  0.10041  1.0000
  H   H8        1.0  0.66644  0.76944  0.39960  1.0000
  H   H9        1.0  0.66628  0.85206  0.78411  1.0000
  H   H10       1.0  0.16626  0.35206  0.71590  1.0000
  H   H11       1.0  0.33373  0.14794  0.21590  1.0000
  H   H12       1.0  0.83372  0.64794  0.28411  1.0000
  H   H13       1.0  0.50025  0.59169  0.61130  1.0000
  H   H14       1.0  0.00026  0.09169  0.88869  1.0000
  H   H15       1.0  0.49977  0.40832  0.38869  1.0000
  H   H16       1.0  0.99973  0.90831  0.11131  1.0000
  H   H17       1.0  0.67198  0.47868  0.73452  1.0000
  H   H18       1.0  0.17200  0.97869  0.76547  1.0000
  H   H19       1.0  0.32802  0.52132  0.26547  1.0000
  H   H20       1.0  0.82802  0.02131  0.23453  1.0000
  C   C1        1.0  0.75758  0.70321  0.83486  1.0000
  C   C2        1.0  0.25758  0.20322  0.66514  1.0000
  C   C3        1.0  0.24242  0.29679  0.16514  1.0000
  C   C4        1.0  0.74243  0.79678  0.33486  1.0000
  C   C5        1.0  0.66701  0.76975  0.77107  1.0000
  C   C6        1.0  0.16701  0.26975  0.72893  1.0000
  C   C7        1.0  0.33298  0.23026  0.22894  1.0000
  C   C8        1.0  0.83298  0.73025  0.27107  1.0000
  C   C9        1.0  0.56514  0.72989  0.68968  1.0000
  C   C10       1.0  0.06514  0.22988  0.81032  1.0000
  C   C11       1.0  0.43486  0.27012  0.31032  1.0000
  C   C12       1.0  0.93483  0.77011  0.18968  1.0000
  C   C13       1.0  0.57257  0.62405  0.67464  1.0000
  C   C14       1.0  0.07259  0.12404  0.82536  1.0000
  C   C15       1.0  0.42742  0.37596  0.32536  1.0000
  C   C16       1.0  0.92741  0.87595  0.17464  1.0000
  C   C17       1.0  0.66571  0.56193  0.74165  1.0000
  C   C18       1.0  0.16572  0.06193  0.75834  1.0000
  C   C19       1.0  0.33429  0.43807  0.25834  1.0000
  C   C20       1.0  0.83429  0.93807  0.24166  1.0000
  C   C21       1.0  0.43728  0.79883  0.62083  1.0000
  C   C22       1.0  0.93730  0.29882  0.87918  1.0000
  C   C23       1.0  0.56270  0.20118  0.37917  1.0000
  C   C24       1.0  0.06268  0.70117  0.12082  1.0000
  N   N1        1.0  0.74962  0.60040  0.82061  1.0000
  N   N2        1.0  0.24963  0.10040  0.67938  1.0000
  N   N3        1.0  0.25037  0.39960  0.17939  1.0000
  N   N4        1.0  0.75040  0.89960  0.32062  1.0000
  O   O1        1.0  0.67360  0.42872  0.02684  1.0000
  O   O2        1.0  0.17365  0.92872  0.47315  1.0000
  O   O3        1.0  0.32640  0.57128  0.97315  1.0000
  O   O4        1.0  0.82643  0.07128  0.52684  1.0000
  O   O5        1.0  0.44550  0.89437  0.64422  1.0000
  O   O6        1.0  0.94548  0.39436  0.85578  1.0000
  O   O7        1.0  0.55455  0.10564  0.35577  1.0000
  O   O8        1.0  0.05447  0.60563  0.14422  1.0000
  O   O9        1.0  0.32920  0.75827  0.55023  1.0000
  O   O10       1.0  0.82927  0.25826  0.94977  1.0000
  O   O11       1.0  0.67074  0.24173  0.44977  1.0000
  O   O12       1.0  0.17074  0.74173  0.05023  1.0000
