data_image0
_chemical_formula_structural       Fe2H4C6O14
_chemical_formula_sum              "Fe2 H4 C6 O14"
_cell_length_a       4.88311
_cell_length_b       6.69121
_cell_length_c       8.74606
_cell_angle_alpha    90.6686
_cell_angle_beta     97.919
_cell_angle_gamma    94.466

_space_group_name_H-M_alt    "P 1"
_space_group_IT_number       1

loop_
  _space_group_symop_operation_xyz
  'x, y, z'

loop_
  _atom_site_type_symbol
  _atom_site_label
  _atom_site_symmetry_multiplicity
  _atom_site_fract_x
  _atom_site_fract_y
  _atom_site_fract_z
  _atom_site_occupancy
  Fe  Fe1       1.0  0.50337  0.29855  0.24685  1.0000
  Fe  Fe2       1.0  0.49535  0.69981  0.75472  1.0000
  H   H1        1.0  0.93206  0.16807  0.37503  1.0000
  H   H2        1.0  0.06968  0.83568  0.62306  1.0000
  H   H3        1.0  0.77601  0.00179  0.25253  1.0000
  H   H4        1.0  0.22676  0.00000  0.74596  1.0000
  C   C1        1.0  0.13626  0.07035  0.00999  1.0000
  C   C2        1.0  0.86474  0.92787  0.98941  1.0000
  C   C3        1.0  0.36935  0.43987  0.51450  1.0000
  C   C4        1.0  0.63111  0.56020  0.48633  1.0000
  C   C5        1.0  0.37838  0.55281  0.02099  1.0000
  C   C6        1.0  0.61823  0.44521  0.97996  1.0000
  O   O1        1.0  0.23027  0.14343  0.89558  1.0000
  O   O2        1.0  0.76933  0.85682  0.10373  1.0000
  O   O3        1.0  0.23703  0.09899  0.15315  1.0000
  O   O4        1.0  0.76227  0.89939  0.84581  1.0000
  O   O5        1.0  0.28027  0.29932  0.41604  1.0000
  O   O6        1.0  0.71498  0.70500  0.58179  1.0000
  O   O7        1.0  0.26039  0.48688  0.63173  1.0000
  O   O8        1.0  0.74457  0.50832  0.37194  1.0000
  O   O9        1.0  0.29388  0.51002  0.14848  1.0000
  O   O10       1.0  0.70107  0.48757  0.85181  1.0000
  O   O11       1.0  0.28132  0.67775  0.92359  1.0000
  O   O12       1.0  0.72065  0.32432  0.07873  1.0000
  O   O13       1.0  0.74609  0.10189  0.33632  1.0000
  O   O14       1.0  0.25658  0.90008  0.66195  1.0000
