data_image0
_chemical_formula_structural       CdH22C22S2N4O10
_chemical_formula_sum              "Cd1 H22 C22 S2 N4 O10"
_cell_length_a       5.77977
_cell_length_b       10.5678
_cell_length_c       11.6752
_cell_angle_alpha    67.9239
_cell_angle_beta     78.9852
_cell_angle_gamma    76.0953

_space_group_name_H-M_alt    "P 1"
_space_group_IT_number       1

loop_
  _space_group_symop_operation_xyz
  'x, y, z'

loop_
  _atom_site_type_symbol
  _atom_site_label
  _atom_site_symmetry_multiplicity
  _atom_site_fract_x
  _atom_site_fract_y
  _atom_site_fract_z
  _atom_site_occupancy
  Cd  Cd1       1.0  0.50000  0.50000  0.50000  1.0000
  H   H1        1.0  0.67374  0.51682  0.70658  1.0000
  H   H2        1.0  0.32625  0.48317  0.29342  1.0000
  H   H3        1.0  0.49401  0.66384  0.65524  1.0000
  H   H4        1.0  0.50598  0.33616  0.34476  1.0000
  H   H5        1.0  0.05791  0.65030  0.78626  1.0000
  H   H6        1.0  0.94207  0.34970  0.21375  1.0000
  H   H7        1.0  0.79598  0.77741  0.76385  1.0000
  H   H8        1.0  0.20399  0.22258  0.23618  1.0000
  H   H9        1.0  0.52371  0.71610  0.05475  1.0000
  H   H10       1.0  0.47632  0.28390  0.94524  1.0000
  H   H11       1.0  0.99120  0.88014  0.18682  1.0000
  H   H12       1.0  0.00883  0.11987  0.81317  1.0000
  H   H13       1.0  0.21546  0.87812  0.91952  1.0000
  H   H14       1.0  0.78458  0.12189  0.08046  1.0000
  H   H15       1.0  0.07053  0.32917  0.47873  1.0000
  H   H16       1.0  0.92948  0.67082  0.52127  1.0000
  H   H17       1.0  0.28993  0.08330  0.54480  1.0000
  H   H18       1.0  0.71005  0.91669  0.45520  1.0000
  H   H19       1.0  0.61387  0.96114  0.73227  1.0000
  H   H20       1.0  0.38609  0.03886  0.26771  1.0000
  H   H21       1.0  0.42659  0.20724  0.65780  1.0000
  H   H22       1.0  0.57340  0.79276  0.34219  1.0000
  C   C1        1.0  0.46360  0.94202  0.99517  1.0000
  C   C2        1.0  0.53642  0.05799  0.00482  1.0000
  C   C3        1.0  0.58120  0.80539  0.05822  1.0000
  C   C4        1.0  0.41882  0.19461  0.94178  1.0000
  C   C5        1.0  0.76527  0.78593  0.12632  1.0000
  C   C6        1.0  0.23475  0.21408  0.87368  1.0000
  C   C7        1.0  0.84070  0.89957  0.13519  1.0000
  C   C8        1.0  0.15932  0.10044  0.86480  1.0000
  C   C9        1.0  0.27339  0.96702  0.92380  1.0000
  C   C10       1.0  0.72665  0.03298  0.07619  1.0000
  C   C11       1.0  0.97622  0.24473  0.53606  1.0000
  C   C12       1.0  0.02379  0.75527  0.46394  1.0000
  C   C13       1.0  0.09862  0.10739  0.57334  1.0000
  C   C14       1.0  0.90137  0.89260  0.42667  1.0000
  C   C15       1.0  0.97433  0.00046  0.64683  1.0000
  C   C16       1.0  0.02564  0.99954  0.35318  1.0000
  C   C17       1.0  0.72740  0.03665  0.67751  1.0000
  C   C18       1.0  0.27259  0.96335  0.32249  1.0000
  C   C19       1.0  0.61816  0.17559  0.63616  1.0000
  C   C20       1.0  0.38183  0.82442  0.36383  1.0000
  C   C21       1.0  0.10835  0.85269  0.69022  1.0000
  C   C22       1.0  0.89165  0.14731  0.30979  1.0000
  S   S1        1.0  0.90381  0.61423  0.21056  1.0000
  S   S2        1.0  0.09619  0.38577  0.78944  1.0000
  N   N1        1.0  0.73926  0.27847  0.56804  1.0000
  N   N2        1.0  0.26073  0.72154  0.43196  1.0000
  N   N3        1.0  0.97755  0.75438  0.75447  1.0000
  N   N4        1.0  0.02240  0.24561  0.24555  1.0000
  O   O1        1.0  0.82011  0.59276  0.34404  1.0000
  O   O2        1.0  0.17988  0.40725  0.65596  1.0000
  O   O3        1.0  0.82150  0.52296  0.16499  1.0000
  O   O4        1.0  0.17850  0.47705  0.83501  1.0000
  O   O5        1.0  0.16361  0.61309  0.18475  1.0000
  O   O6        1.0  0.83640  0.38690  0.81525  1.0000
  O   O7        1.0  0.33253  0.82676  0.66691  1.0000
  O   O8        1.0  0.66743  0.17323  0.33312  1.0000
  O   O9        1.0  0.61102  0.59028  0.63044  1.0000
  O   O10       1.0  0.38899  0.40971  0.36956  1.0000
