data_image0
_chemical_formula_structural       Cd2H20C20S4O16
_chemical_formula_sum              "Cd2 H20 C20 S4 O16"
_cell_length_a       5.85847
_cell_length_b       10.1645
_cell_length_c       12.118
_cell_angle_alpha    109.618
_cell_angle_beta     103.985
_cell_angle_gamma    90.0085

_space_group_name_H-M_alt    "P 1"
_space_group_IT_number       1

loop_
  _space_group_symop_operation_xyz
  'x, y, z'

loop_
  _atom_site_type_symbol
  _atom_site_label
  _atom_site_symmetry_multiplicity
  _atom_site_fract_x
  _atom_site_fract_y
  _atom_site_fract_z
  _atom_site_occupancy
  Cd  Cd1       1.0  0.00001  0.50000  1.00000  1.0000
  Cd  Cd2       1.0  1.00000  1.00000  1.00000  1.0000
  H   H1        1.0  0.00893  0.24498  0.31029  1.0000
  H   H2        1.0  0.69878  0.25500  0.68977  1.0000
  H   H3        1.0  0.99105  0.75502  0.68970  1.0000
  H   H4        1.0  0.30124  0.74500  0.31024  1.0000
  H   H5        1.0  0.68097  0.52246  0.31308  1.0000
  H   H6        1.0  0.36797  0.97769  0.68686  1.0000
  H   H7        1.0  0.31899  0.47753  0.68690  1.0000
  H   H8        1.0  0.63206  0.02232  0.31314  1.0000
  H   H9        1.0  0.01104  0.30851  0.52769  1.0000
  H   H10       1.0  0.48321  0.19123  0.47231  1.0000
  H   H11       1.0  0.98892  0.69149  0.47229  1.0000
  H   H12       1.0  0.51682  0.80879  0.52769  1.0000
  H   H13       1.0  0.67175  0.37172  0.09407  1.0000
  H   H14       1.0  0.57782  0.12833  0.90588  1.0000
  H   H15       1.0  0.32828  0.62827  0.90593  1.0000
  H   H16       1.0  0.42217  0.87166  0.09412  1.0000
  H   H17       1.0  0.55188  0.37868  0.96557  1.0000
  H   H18       1.0  0.58620  0.12118  0.03429  1.0000
  H   H19       1.0  0.44812  0.62132  0.03444  1.0000
  H   H20       1.0  0.41380  0.87881  0.96571  1.0000
  C   C1        1.0  0.31929  0.38144  0.34850  1.0000
  C   C2        1.0  0.97081  0.11857  0.65150  1.0000
  C   C3        1.0  0.68070  0.61857  0.65150  1.0000
  C   C4        1.0  0.02919  0.88143  0.34850  1.0000
  C   C5        1.0  0.14614  0.32045  0.38017  1.0000
  C   C6        1.0  0.76587  0.17945  0.61985  1.0000
  C   C7        1.0  0.85382  0.67957  0.61982  1.0000
  C   C8        1.0  0.23415  0.82056  0.38017  1.0000
  C   C9        1.0  0.50055  0.48232  0.43726  1.0000
  C   C10       1.0  0.06331  0.01771  0.56271  1.0000
  C   C11       1.0  0.49944  0.51767  0.56272  1.0000
  C   C12       1.0  0.93672  0.98230  0.43729  1.0000
  C   C13       1.0  0.67919  0.54820  0.40748  1.0000
  C   C14       1.0  0.27188  0.95198  0.59247  1.0000
  C   C15       1.0  0.32077  0.45179  0.59250  1.0000
  C   C16       1.0  0.72816  0.04803  0.40754  1.0000
  C   C17       1.0  0.14851  0.35641  0.50340  1.0000
  C   C18       1.0  0.64493  0.14335  0.49663  1.0000
  C   C19       1.0  0.85143  0.64358  0.49659  1.0000
  C   C20       1.0  0.35510  0.85667  0.50338  1.0000
  S   S1        1.0  0.30325  0.33396  0.19114  1.0000
  S   S2        1.0  0.11241  0.16614  0.80886  1.0000
  S   S3        1.0  0.69674  0.66604  0.80885  1.0000
  S   S4        1.0  0.88760  0.83386  0.19115  1.0000
  O   O1        1.0  0.26298  0.46502  0.16434  1.0000
  O   O2        1.0  0.09919  0.03511  0.83573  1.0000
  O   O3        1.0  0.73703  0.53498  0.83565  1.0000
  O   O4        1.0  0.90081  0.96489  0.16428  1.0000
  O   O5        1.0  0.52871  0.27965  0.17063  1.0000
  O   O6        1.0  0.35835  0.22056  0.82927  1.0000
  O   O7        1.0  0.47129  0.72034  0.82938  1.0000
  O   O8        1.0  0.64166  0.77944  0.17074  1.0000
  O   O9        1.0  0.09942  0.22902  0.12871  1.0000
  O   O10       1.0  0.97092  0.27098  0.87131  1.0000
  O   O11       1.0  0.90058  0.77097  0.87127  1.0000
  O   O12       1.0  0.02910  0.72901  0.12869  1.0000
  O   O13       1.0  0.67729  0.42496  0.03992  1.0000
  O   O14       1.0  0.63747  0.07505  0.95999  1.0000
  O   O15       1.0  0.32272  0.57504  0.96009  1.0000
  O   O16       1.0  0.36253  0.92494  0.04002  1.0000
