data_image0
_chemical_formula_structural       Zn4H28C40N12O16
_chemical_formula_sum              "Zn4 H28 C40 N12 O16"
_cell_length_a       9.69565
_cell_length_b       10.2197
_cell_length_c       11.3279
_cell_angle_alpha    97.6679
_cell_angle_beta     90.0001
_cell_angle_gamma    89.9999

_space_group_name_H-M_alt    "P 1"
_space_group_IT_number       1

loop_
  _space_group_symop_operation_xyz
  'x, y, z'

loop_
  _atom_site_type_symbol
  _atom_site_label
  _atom_site_symmetry_multiplicity
  _atom_site_fract_x
  _atom_site_fract_y
  _atom_site_fract_z
  _atom_site_occupancy
  Zn  Zn1       1.0  0.58947  0.10570  0.39896  1.0000
  Zn  Zn2       1.0  0.08947  0.39430  0.60104  1.0000
  Zn  Zn3       1.0  0.41053  0.89430  0.60104  1.0000
  Zn  Zn4       1.0  0.91053  0.60570  0.39896  1.0000
  H   H1        1.0  0.85417  0.02986  0.01214  1.0000
  H   H2        1.0  0.35417  0.47014  0.98786  1.0000
  H   H3        1.0  0.14583  0.97014  0.98786  1.0000
  H   H4        1.0  0.64583  0.52986  0.01214  1.0000
  H   H5        1.0  0.35989  0.32671  0.42748  1.0000
  H   H6        1.0  0.85989  0.17329  0.57252  1.0000
  H   H7        1.0  0.64011  0.67329  0.57252  1.0000
  H   H8        1.0  0.14011  0.82671  0.42748  1.0000
  H   H9        1.0  0.45279  0.22145  0.82448  1.0000
  H   H10       1.0  0.95280  0.27855  0.17552  1.0000
  H   H11       1.0  0.54721  0.77855  0.17552  1.0000
  H   H12       1.0  0.04720  0.72146  0.82448  1.0000
  H   H13       1.0  0.14442  0.09153  0.64465  1.0000
  H   H14       1.0  0.64442  0.40847  0.35535  1.0000
  H   H15       1.0  0.85558  0.90846  0.35535  1.0000
  H   H16       1.0  0.35558  0.59153  0.64465  1.0000
  H   H17       1.0  0.65688  0.14096  0.70142  1.0000
  H   H18       1.0  0.15688  0.35904  0.29858  1.0000
  H   H19       1.0  0.34312  0.85904  0.29858  1.0000
  H   H20       1.0  0.84312  0.64096  0.70142  1.0000
  H   H21       1.0  0.45029  0.20573  0.04195  1.0000
  H   H22       1.0  0.95029  0.29427  0.95805  1.0000
  H   H23       1.0  0.54971  0.79427  0.95805  1.0000
  H   H24       1.0  0.04971  0.70574  0.04195  1.0000
  H   H25       1.0  0.08703  0.97603  0.80952  1.0000
  H   H26       1.0  0.58703  0.52397  0.19048  1.0000
  H   H27       1.0  0.91297  0.02397  0.19048  1.0000
  H   H28       1.0  0.41297  0.47603  0.80952  1.0000
  C   C1        1.0  0.89463  0.03627  0.78002  1.0000
  C   C2        1.0  0.39463  0.46373  0.21998  1.0000
  C   C3        1.0  0.10537  0.96373  0.21998  1.0000
  C   C4        1.0  0.60537  0.53627  0.78002  1.0000
  C   C5        1.0  0.76612  0.07264  0.97229  1.0000
  C   C6        1.0  0.26612  0.42736  0.02771  1.0000
  C   C7        1.0  0.23388  0.92736  0.02771  1.0000
  C   C8        1.0  0.73388  0.57264  0.97229  1.0000
  C   C9        1.0  0.76894  0.08140  0.85008  1.0000
  C   C10       1.0  0.26894  0.41860  0.14992  1.0000
  C   C11       1.0  0.23106  0.91861  0.14992  1.0000
  C   C12       1.0  0.73106  0.58140  0.85008  1.0000
  C   C13       1.0  0.65250  0.11753  0.04193  1.0000
  C   C14       1.0  0.15250  0.38247  0.95807  1.0000
  C   C15       1.0  0.34750  0.88247  0.95807  1.0000
  C   C16       1.0  0.84750  0.61753  0.04193  1.0000
  C   C17       1.0  0.33134  0.24677  0.47762  1.0000
  C   C18       1.0  0.83134  0.25323  0.52237  1.0000
  C   C19       1.0  0.66866  0.75323  0.52238  1.0000
  C   C20       1.0  0.16866  0.74677  0.47762  1.0000
  C   C21       1.0  0.65334  0.10561  0.17191  1.0000
  C   C22       1.0  0.15333  0.39439  0.82809  1.0000
  C   C23       1.0  0.34667  0.89439  0.82809  1.0000
  C   C24       1.0  0.84667  0.60561  0.17190  1.0000
  C   C25       1.0  0.54121  0.17974  0.86587  1.0000
  C   C26       1.0  0.04121  0.32026  0.13413  1.0000
  C   C27       1.0  0.45879  0.82026  0.13412  1.0000
  C   C28       1.0  0.95879  0.67974  0.86587  1.0000
  C   C29       1.0  0.22277  0.12795  0.58896  1.0000
  C   C30       1.0  0.72278  0.37204  0.41104  1.0000
  C   C31       1.0  0.77723  0.87204  0.41104  1.0000
  C   C32       1.0  0.27722  0.62796  0.58896  1.0000
  C   C33       1.0  0.65524  0.13479  0.79676  1.0000
  C   C34       1.0  0.15524  0.36521  0.20324  1.0000
  C   C35       1.0  0.34476  0.86521  0.20324  1.0000
  C   C36       1.0  0.84476  0.63480  0.79676  1.0000
  C   C37       1.0  0.53932  0.17143  0.98789  1.0000
  C   C38       1.0  0.03932  0.32857  0.01211  1.0000
  C   C39       1.0  0.46068  0.82857  0.01211  1.0000
  C   C40       1.0  0.96068  0.67143  0.98789  1.0000
  N   N1        1.0  0.40763  0.13972  0.48306  1.0000
  N   N2        1.0  0.90763  0.36028  0.51694  1.0000
  N   N3        1.0  0.59237  0.86028  0.51694  1.0000
  N   N4        1.0  0.09237  0.63972  0.48306  1.0000
  N   N5        1.0  0.33855  0.06365  0.55512  1.0000
  N   N6        1.0  0.83855  0.43635  0.44487  1.0000
  N   N7        1.0  0.66145  0.93635  0.44487  1.0000
  N   N8        1.0  0.16145  0.56365  0.55513  1.0000
  N   N9        1.0  0.21486  0.24293  0.54271  1.0000
  N   N10       1.0  0.71486  0.25707  0.45729  1.0000
  N   N11       1.0  0.78514  0.75707  0.45729  1.0000
  N   N12       1.0  0.28514  0.74293  0.54271  1.0000
  O   O1        1.0  0.54339  0.13858  0.23261  1.0000
  O   O2        1.0  0.04339  0.36142  0.76739  1.0000
  O   O3        1.0  0.45661  0.86142  0.76739  1.0000
  O   O4        1.0  0.95661  0.63858  0.23261  1.0000
  O   O5        1.0  0.75891  0.06351  0.22195  1.0000
  O   O6        1.0  0.25891  0.43649  0.77805  1.0000
  O   O7        1.0  0.24109  0.93649  0.77805  1.0000
  O   O8        1.0  0.74109  0.56351  0.22195  1.0000
  O   O9        1.0  0.90441  0.03000  0.67053  1.0000
  O   O10       1.0  0.40441  0.47000  0.32947  1.0000
  O   O11       1.0  0.09559  0.97000  0.32947  1.0000
  O   O12       1.0  0.59559  0.53000  0.67053  1.0000
  O   O13       1.0  0.99617  0.00486  0.85021  1.0000
  O   O14       1.0  0.49617  0.49514  0.14979  1.0000
  O   O15       1.0  0.00383  0.99514  0.14979  1.0000
  O   O16       1.0  0.50383  0.50486  0.85021  1.0000
