data_image0
_chemical_formula_structural       Zn8P4H16C28O20F4
_chemical_formula_sum              "Zn8 P4 H16 C28 O20 F4"
_cell_length_a       5.75484
_cell_length_b       8.56676
_cell_length_c       19.4467
_cell_angle_alpha    90.0002
_cell_angle_beta     90
_cell_angle_gamma    100.967

_space_group_name_H-M_alt    "P 1"
_space_group_IT_number       1

loop_
  _space_group_symop_operation_xyz
  'x, y, z'

loop_
  _atom_site_type_symbol
  _atom_site_label
  _atom_site_symmetry_multiplicity
  _atom_site_fract_x
  _atom_site_fract_y
  _atom_site_fract_z
  _atom_site_occupancy
  Zn  Zn1       1.0  0.25498  0.03765  0.46908  1.0000
  Zn  Zn2       1.0  0.74502  0.46235  0.96908  1.0000
  Zn  Zn3       1.0  0.74502  0.96235  0.53092  1.0000
  Zn  Zn4       1.0  0.25498  0.53765  0.03092  1.0000
  Zn  Zn5       1.0  0.65294  0.36262  0.50157  1.0000
  Zn  Zn6       1.0  0.34705  0.13738  0.00157  1.0000
  Zn  Zn7       1.0  0.34706  0.63738  0.49843  1.0000
  Zn  Zn8       1.0  0.65294  0.86262  0.99843  1.0000
  P   P1        1.0  0.88436  0.19731  0.06795  1.0000
  P   P2        1.0  0.11564  0.30269  0.56795  1.0000
  P   P3        1.0  0.11564  0.80268  0.93205  1.0000
  P   P4        1.0  0.88436  0.69731  0.43205  1.0000
  H   H1        1.0  0.97471  0.35726  0.31231  1.0000
  H   H2        1.0  0.02528  0.14273  0.81231  1.0000
  H   H3        1.0  0.02529  0.64274  0.68769  1.0000
  H   H4        1.0  0.97471  0.85727  0.18769  1.0000
  H   H5        1.0  0.10939  0.35276  0.19014  1.0000
  H   H6        1.0  0.89061  0.14724  0.69013  1.0000
  H   H7        1.0  0.89061  0.64724  0.80986  1.0000
  H   H8        1.0  0.10939  0.85276  0.30986  1.0000
  H   H9        1.0  0.43312  0.06546  0.13615  1.0000
  H   H10       1.0  0.56687  0.43454  0.63615  1.0000
  H   H11       1.0  0.56687  0.93454  0.86385  1.0000
  H   H12       1.0  0.43313  0.56546  0.36385  1.0000
  H   H13       1.0  0.30247  0.07359  0.25702  1.0000
  H   H14       1.0  0.69752  0.42641  0.75702  1.0000
  H   H15       1.0  0.69753  0.92641  0.74298  1.0000
  H   H16       1.0  0.30248  0.57359  0.24298  1.0000
  C   C1        1.0  0.55415  0.21414  0.36513  1.0000
  C   C2        1.0  0.44585  0.28586  0.86513  1.0000
  C   C3        1.0  0.44586  0.78586  0.63487  1.0000
  C   C4        1.0  0.55415  0.71414  0.13487  1.0000
  C   C5        1.0  0.63138  0.21446  0.29183  1.0000
  C   C6        1.0  0.36862  0.28553  0.79183  1.0000
  C   C7        1.0  0.36862  0.78554  0.70817  1.0000
  C   C8        1.0  0.63138  0.71446  0.20817  1.0000
  C   C9        1.0  0.85870  0.29428  0.27291  1.0000
  C   C10       1.0  0.14129  0.20572  0.77291  1.0000
  C   C11       1.0  0.14130  0.70572  0.72709  1.0000
  C   C12       1.0  0.85871  0.79428  0.22709  1.0000
  C   C13       1.0  0.93272  0.29125  0.20489  1.0000
  C   C14       1.0  0.06727  0.20875  0.70489  1.0000
  C   C15       1.0  0.06727  0.70875  0.79511  1.0000
  C   C16       1.0  0.93273  0.79125  0.29511  1.0000
  C   C17       1.0  0.78097  0.20826  0.15495  1.0000
  C   C18       1.0  0.21902  0.29174  0.65495  1.0000
  C   C19       1.0  0.21902  0.79174  0.84505  1.0000
  C   C20       1.0  0.78098  0.70826  0.34505  1.0000
  C   C21       1.0  0.55378  0.12967  0.17403  1.0000
  C   C22       1.0  0.44622  0.37033  0.67403  1.0000
  C   C23       1.0  0.44622  0.87032  0.82597  1.0000
  C   C24       1.0  0.55378  0.62968  0.32597  1.0000
  C   C25       1.0  0.47925  0.13337  0.24198  1.0000
  C   C26       1.0  0.52074  0.36662  0.74198  1.0000
  C   C27       1.0  0.52075  0.86662  0.75802  1.0000
  C   C28       1.0  0.47926  0.63338  0.25802  1.0000
  O   O1        1.0  0.34543  0.13921  0.37998  1.0000
  O   O2        1.0  0.65456  0.36079  0.87998  1.0000
  O   O3        1.0  0.65457  0.86079  0.62002  1.0000
  O   O4        1.0  0.34543  0.63921  0.12002  1.0000
  O   O5        1.0  0.70331  0.28845  0.40781  1.0000
  O   O6        1.0  0.29669  0.21154  0.90781  1.0000
  O   O7        1.0  0.29669  0.71155  0.59219  1.0000
  O   O8        1.0  0.70331  0.78845  0.09219  1.0000
  O   O9        1.0  0.95258  0.36898  0.03714  1.0000
  O   O10       1.0  0.04741  0.13102  0.53714  1.0000
  O   O11       1.0  0.04741  0.63102  0.96286  1.0000
  O   O12       1.0  0.95259  0.86898  0.46286  1.0000
  O   O13       1.0  0.09615  0.11440  0.07001  1.0000
  O   O14       1.0  0.90385  0.38560  0.57001  1.0000
  O   O15       1.0  0.90385  0.88560  0.92999  1.0000
  O   O16       1.0  0.09616  0.61440  0.42999  1.0000
  O   O17       1.0  0.67809  0.10245  0.02478  1.0000
  O   O18       1.0  0.32191  0.39755  0.52478  1.0000
  O   O19       1.0  0.32191  0.89754  0.97522  1.0000
  O   O20       1.0  0.67809  0.60246  0.47522  1.0000
  F   F1        1.0  0.53155  0.12600  0.53662  1.0000
  F   F2        1.0  0.46846  0.37400  0.03662  1.0000
  F   F3        1.0  0.46845  0.87400  0.46338  1.0000
  F   F4        1.0  0.53155  0.62600  0.96338  1.0000
