data_image0
_chemical_formula_structural       Ag4H16C24N4O12
_chemical_formula_sum              "Ag4 H16 C24 N4 O12"
_cell_length_a       3.61157
_cell_length_b       10.8413
_cell_length_c       17.6432
_cell_angle_alpha    90.0015
_cell_angle_beta     90.0015
_cell_angle_gamma    91.7761

_space_group_name_H-M_alt    "P 1"
_space_group_IT_number       1

loop_
  _space_group_symop_operation_xyz
  'x, y, z'

loop_
  _atom_site_type_symbol
  _atom_site_label
  _atom_site_symmetry_multiplicity
  _atom_site_fract_x
  _atom_site_fract_y
  _atom_site_fract_z
  _atom_site_occupancy
  Ag  Ag1       1.0  0.69204  0.39819  0.47560  1.0000
  Ag  Ag2       1.0  0.30800  0.10181  0.97561  1.0000
  Ag  Ag3       1.0  0.30796  0.60180  0.52440  1.0000
  Ag  Ag4       1.0  0.69206  0.89820  0.02439  1.0000
  H   H1        1.0  0.91864  0.34311  0.32866  1.0000
  H   H2        1.0  0.08132  0.15689  0.82867  1.0000
  H   H3        1.0  0.08135  0.65688  0.67133  1.0000
  H   H4        1.0  0.91866  0.84311  0.17133  1.0000
  H   H5        1.0  0.05315  0.28052  0.19361  1.0000
  H   H6        1.0  0.94681  0.21948  0.69360  1.0000
  H   H7        1.0  0.94682  0.71947  0.80639  1.0000
  H   H8        1.0  0.05316  0.78051  0.30639  1.0000
  H   H9        1.0  0.52697  0.95040  0.28033  1.0000
  H   H10       1.0  0.47304  0.54962  0.78034  1.0000
  H   H11       1.0  0.47304  0.04961  0.71967  1.0000
  H   H12       1.0  0.52696  0.45039  0.21967  1.0000
  H   H13       1.0  0.37065  0.02358  0.41264  1.0000
  H   H14       1.0  0.62938  0.47643  0.91264  1.0000
  H   H15       1.0  0.62938  0.97641  0.58736  1.0000
  H   H16       1.0  0.37062  0.52358  0.08737  1.0000
  C   C1        1.0  0.05599  0.25849  0.31409  1.0000
  C   C2        1.0  0.94400  0.24151  0.81409  1.0000
  C   C3        1.0  0.94400  0.74151  0.68591  1.0000
  C   C4        1.0  0.05597  0.75849  0.18590  1.0000
  C   C5        1.0  0.13164  0.22235  0.24093  1.0000
  C   C6        1.0  0.86832  0.27764  0.74093  1.0000
  C   C7        1.0  0.86837  0.77764  0.75907  1.0000
  C   C8        1.0  0.13163  0.72235  0.25908  1.0000
  C   C9        1.0  0.30644  0.11157  0.22634  1.0000
  C   C10       1.0  0.69356  0.38845  0.72634  1.0000
  C   C11       1.0  0.69355  0.88843  0.77366  1.0000
  C   C12       1.0  0.30643  0.61156  0.27366  1.0000
  C   C13       1.0  0.39244  0.03772  0.28869  1.0000
  C   C14       1.0  0.60758  0.46229  0.78870  1.0000
  C   C15       1.0  0.60758  0.96228  0.71130  1.0000
  C   C16       1.0  0.39240  0.53771  0.21131  1.0000
  C   C17       1.0  0.31160  0.07528  0.36146  1.0000
  C   C18       1.0  0.68842  0.42473  0.86147  1.0000
  C   C19       1.0  0.68843  0.92472  0.63854  1.0000
  C   C20       1.0  0.31157  0.57527  0.13853  1.0000
  C   C21       1.0  0.39019  0.07537  0.14643  1.0000
  C   C22       1.0  0.60984  0.42463  0.64644  1.0000
  C   C23       1.0  0.60983  0.92463  0.85357  1.0000
  C   C24       1.0  0.39012  0.57537  0.35357  1.0000
  N   N1        1.0  0.14768  0.18584  0.37423  1.0000
  N   N2        1.0  0.85236  0.31416  0.87424  1.0000
  N   N3        1.0  0.85236  0.81416  0.62576  1.0000
  N   N4        1.0  0.14766  0.68583  0.12577  1.0000
  O   O1        1.0  0.07887  0.21941  0.44370  1.0000
  O   O2        1.0  0.92114  0.28060  0.94370  1.0000
  O   O3        1.0  0.92116  0.78060  0.55630  1.0000
  O   O4        1.0  0.07886  0.71940  0.05630  1.0000
  O   O5        1.0  0.55268  0.97341  0.13731  1.0000
  O   O6        1.0  0.44731  0.52659  0.63731  1.0000
  O   O7        1.0  0.44733  0.02659  0.86269  1.0000
  O   O8        1.0  0.55268  0.47341  0.36269  1.0000
  O   O9        1.0  0.28927  0.14964  0.09552  1.0000
  O   O10       1.0  0.71074  0.35036  0.59553  1.0000
  O   O11       1.0  0.71074  0.85035  0.90448  1.0000
  O   O12       1.0  0.28926  0.64965  0.40448  1.0000
