data_image0
_chemical_formula_structural       Na4H24C36S4N4O16
_chemical_formula_sum              "Na4 H24 C36 S4 N4 O16"
_cell_length_a       8.25802
_cell_length_b       10.4417
_cell_length_c       10.7611
_cell_angle_alpha    90
_cell_angle_beta     102.588
_cell_angle_gamma    90.0001

_space_group_name_H-M_alt    "P 1"
_space_group_IT_number       1

loop_
  _space_group_symop_operation_xyz
  'x, y, z'

loop_
  _atom_site_type_symbol
  _atom_site_label
  _atom_site_symmetry_multiplicity
  _atom_site_fract_x
  _atom_site_fract_y
  _atom_site_fract_z
  _atom_site_occupancy
  Na  Na1       1.0  0.41048  0.96800  0.76102  1.0000
  Na  Na2       1.0  0.41048  0.53200  0.26102  1.0000
  Na  Na3       1.0  0.58952  0.03200  0.23898  1.0000
  Na  Na4       1.0  0.58952  0.46800  0.73898  1.0000
  H   H1        1.0  0.41926  0.27530  0.10182  1.0000
  H   H2        1.0  0.41926  0.22470  0.60182  1.0000
  H   H3        1.0  0.58074  0.72470  0.89818  1.0000
  H   H4        1.0  0.58074  0.77530  0.39818  1.0000
  H   H5        1.0  0.05406  0.65748  0.27476  1.0000
  H   H6        1.0  0.05406  0.84252  0.77476  1.0000
  H   H7        1.0  0.94594  0.34252  0.72524  1.0000
  H   H8        1.0  0.94595  0.15748  0.22524  1.0000
  H   H9        1.0  0.74668  0.62862  0.20067  1.0000
  H   H10       1.0  0.74668  0.87138  0.70067  1.0000
  H   H11       1.0  0.25332  0.37138  0.79933  1.0000
  H   H12       1.0  0.25332  0.12862  0.29933  1.0000
  H   H13       1.0  0.63952  0.43517  0.07606  1.0000
  H   H14       1.0  0.63951  0.06483  0.57607  1.0000
  H   H15       1.0  0.36049  0.56483  0.92394  1.0000
  H   H16       1.0  0.36049  0.93517  0.42394  1.0000
  H   H17       1.0  0.91837  0.08307  0.91425  1.0000
  H   H18       1.0  0.91837  0.41693  0.41425  1.0000
  H   H19       1.0  0.08163  0.91693  0.08575  1.0000
  H   H20       1.0  0.08163  0.58307  0.58575  1.0000
  H   H21       1.0  0.22002  0.13048  0.98845  1.0000
  H   H22       1.0  0.22002  0.36952  0.48845  1.0000
  H   H23       1.0  0.77998  0.86952  0.01155  1.0000
  H   H24       1.0  0.77998  0.63048  0.51155  1.0000
  C   C1        1.0  0.00421  0.57330  0.21956  1.0000
  C   C2        1.0  0.00421  0.92670  0.71957  1.0000
  C   C3        1.0  0.99579  0.42670  0.78043  1.0000
  C   C4        1.0  0.99579  0.07330  0.28043  1.0000
  C   C5        1.0  0.83155  0.55649  0.17912  1.0000
  C   C6        1.0  0.83154  0.94351  0.67912  1.0000
  C   C7        1.0  0.16846  0.44351  0.82088  1.0000
  C   C8        1.0  0.16846  0.05649  0.32088  1.0000
  C   C9        1.0  0.77225  0.44929  0.10964  1.0000
  C   C10       1.0  0.77225  0.05071  0.60964  1.0000
  C   C11       1.0  0.22775  0.55071  0.89036  1.0000
  C   C12       1.0  0.22775  0.94929  0.39036  1.0000
  C   C13       1.0  0.83797  0.24693  0.00281  1.0000
  C   C14       1.0  0.83797  0.25306  0.50281  1.0000
  C   C15       1.0  0.16203  0.75307  0.99719  1.0000
  C   C16       1.0  0.16203  0.74693  0.49719  1.0000
  C   C17       1.0  0.95780  0.16799  0.97174  1.0000
  C   C18       1.0  0.95780  0.33201  0.47174  1.0000
  C   C19       1.0  0.04220  0.83201  0.02826  1.0000
  C   C20       1.0  0.04220  0.66799  0.52826  1.0000
  C   C21       1.0  0.12808  0.19485  0.01333  1.0000
  C   C22       1.0  0.12808  0.30515  0.51333  1.0000
  C   C23       1.0  0.87192  0.80515  0.98667  1.0000
  C   C24       1.0  0.87192  0.69485  0.48667  1.0000
  C   C25       1.0  0.17955  0.30260  0.08717  1.0000
  C   C26       1.0  0.17955  0.19739  0.58717  1.0000
  C   C27       1.0  0.82045  0.69740  0.91283  1.0000
  C   C28       1.0  0.82045  0.80260  0.41283  1.0000
  C   C29       1.0  0.05817  0.38630  0.12135  1.0000
  C   C30       1.0  0.05817  0.11370  0.62135  1.0000
  C   C31       1.0  0.94183  0.61370  0.87865  1.0000
  C   C32       1.0  0.94183  0.88630  0.37865  1.0000
  C   C33       1.0  0.88513  0.35935  0.07741  1.0000
  C   C34       1.0  0.88513  0.14065  0.57741  1.0000
  C   C35       1.0  0.11487  0.64065  0.92259  1.0000
  C   C36       1.0  0.11487  0.85935  0.42259  1.0000
  S   S1        1.0  0.62560  0.20475  0.95291  1.0000
  S   S2        1.0  0.62560  0.29524  0.45291  1.0000
  S   S3        1.0  0.37440  0.79525  0.04709  1.0000
  S   S4        1.0  0.37440  0.70475  0.54709  1.0000
  N   N1        1.0  0.11462  0.49141  0.19306  1.0000
  N   N2        1.0  0.11462  0.00859  0.69306  1.0000
  N   N3        1.0  0.88538  0.50859  0.80693  1.0000
  N   N4        1.0  0.88538  0.99141  0.30693  1.0000
  O   O1        1.0  0.33917  0.33667  0.12947  1.0000
  O   O2        1.0  0.33917  0.16333  0.62947  1.0000
  O   O3        1.0  0.66083  0.66333  0.87054  1.0000
  O   O4        1.0  0.66083  0.83667  0.37053  1.0000
  O   O5        1.0  0.62123  0.08585  0.88082  1.0000
  O   O6        1.0  0.62123  0.41415  0.38082  1.0000
  O   O7        1.0  0.37877  0.91415  0.11918  1.0000
  O   O8        1.0  0.37877  0.58585  0.61918  1.0000
  O   O9        1.0  0.56537  0.18600  0.07280  1.0000
  O   O10       1.0  0.56537  0.31400  0.57280  1.0000
  O   O11       1.0  0.43462  0.81400  0.92720  1.0000
  O   O12       1.0  0.43463  0.68600  0.42720  1.0000
  O   O13       1.0  0.53960  0.31308  0.88004  1.0000
  O   O14       1.0  0.53960  0.18692  0.38004  1.0000
  O   O15       1.0  0.46040  0.68692  0.11996  1.0000
  O   O16       1.0  0.46040  0.81307  0.61996  1.0000
