data_image0
_chemical_formula_structural       Ag4H4C14O12
_chemical_formula_sum              "Ag4 H4 C14 O12"
_cell_length_a       3.94067
_cell_length_b       8.51926
_cell_length_c       11.6958
_cell_angle_alpha    89.0297
_cell_angle_beta     85.6329
_cell_angle_gamma    76.4992

_space_group_name_H-M_alt    "P 1"
_space_group_IT_number       1

loop_
  _space_group_symop_operation_xyz
  'x, y, z'

loop_
  _atom_site_type_symbol
  _atom_site_label
  _atom_site_symmetry_multiplicity
  _atom_site_fract_x
  _atom_site_fract_y
  _atom_site_fract_z
  _atom_site_occupancy
  Ag  Ag1       1.0  0.07671  0.40443  0.39437  1.0000
  Ag  Ag2       1.0  0.51715  0.40556  0.10599  1.0000
  Ag  Ag3       1.0  0.92330  0.59557  0.60563  1.0000
  Ag  Ag4       1.0  0.48285  0.59444  0.89401  1.0000
  H   H1        1.0  0.24418  0.05536  0.40668  1.0000
  H   H2        1.0  0.70247  0.05574  0.09228  1.0000
  H   H3        1.0  0.75584  0.94464  0.59331  1.0000
  H   H4        1.0  0.29754  0.94427  0.90772  1.0000
  C   C1        1.0  0.95676  0.08889  0.24943  1.0000
  C   C2        1.0  0.04324  0.91111  0.75057  1.0000
  C   C3        1.0  0.15087  0.99596  0.33770  1.0000
  C   C4        1.0  0.85422  0.99606  0.16142  1.0000
  C   C5        1.0  0.84913  0.00404  0.66230  1.0000
  C   C6        1.0  0.14578  0.00394  0.83859  1.0000
  C   C7        1.0  0.23131  0.83199  0.33309  1.0000
  C   C8        1.0  0.93523  0.83207  0.16650  1.0000
  C   C9        1.0  0.76869  0.16800  0.66691  1.0000
  C   C10       1.0  0.06476  0.16794  0.83350  1.0000
  C   C11       1.0  0.46579  0.71746  0.40897  1.0000
  C   C12       1.0  0.81416  0.71763  0.09097  1.0000
  C   C13       1.0  0.53421  0.28254  0.59103  1.0000
  C   C14       1.0  0.18584  0.28238  0.90903  1.0000
  O   O1        1.0  0.12337  0.75071  0.24992  1.0000
  O   O2        1.0  0.87662  0.24929  0.75008  1.0000
  O   O3        1.0  0.57135  0.77818  0.49364  1.0000
  O   O4        1.0  0.64511  0.77833  0.00685  1.0000
  O   O5        1.0  0.42865  0.22182  0.50636  1.0000
  O   O6        1.0  0.35489  0.22167  0.99315  1.0000
  O   O7        1.0  0.54556  0.57063  0.37692  1.0000
  O   O8        1.0  0.88328  0.57077  0.12278  1.0000
  O   O9        1.0  0.45444  0.42937  0.62308  1.0000
  O   O10       1.0  0.11671  0.42923  0.87723  1.0000
  O   O11       1.0  0.88097  0.24250  0.24925  1.0000
  O   O12       1.0  0.11903  0.75750  0.75075  1.0000
