data_image0
_chemical_formula_structural       Bi2H30C28S4O30
_chemical_formula_sum              "Bi2 H30 C28 S4 O30"
_cell_length_a       7.44838
_cell_length_b       11.097
_cell_length_c       12.4921
_cell_angle_alpha    81.4989
_cell_angle_beta     86.2462
_cell_angle_gamma    86.9913

_space_group_name_H-M_alt    "P 1"
_space_group_IT_number       1

loop_
  _space_group_symop_operation_xyz
  'x, y, z'

loop_
  _atom_site_type_symbol
  _atom_site_label
  _atom_site_symmetry_multiplicity
  _atom_site_fract_x
  _atom_site_fract_y
  _atom_site_fract_z
  _atom_site_occupancy
  Bi  Bi1       1.0  0.39298  0.11455  0.85847  1.0000
  Bi  Bi2       1.0  0.60702  0.88544  0.14153  1.0000
  H   H1        1.0  0.31222  0.56566  0.94594  1.0000
  H   H2        1.0  0.68777  0.43433  0.05406  1.0000
  H   H3        1.0  0.64988  0.71327  0.59753  1.0000
  H   H4        1.0  0.35012  0.28672  0.40247  1.0000
  H   H5        1.0  0.59498  0.39586  0.66926  1.0000
  H   H6        1.0  0.40501  0.60413  0.33074  1.0000
  H   H7        1.0  0.52091  0.86082  0.71681  1.0000
  H   H8        1.0  0.47910  0.13918  0.28319  1.0000
  H   H9        1.0  0.91883  0.40176  0.83068  1.0000
  H   H10       1.0  0.08117  0.59824  0.16932  1.0000
  H   H11       1.0  0.76757  0.61218  0.98983  1.0000
  H   H12       1.0  0.23242  0.38783  0.01016  1.0000
  H   H13       1.0  0.01404  0.80286  0.72827  1.0000
  H   H14       1.0  0.98596  0.19714  0.27174  1.0000
  H   H15       1.0  0.22430  0.65765  0.51638  1.0000
  H   H16       1.0  0.77571  0.34236  0.48363  1.0000
  H   H17       1.0  0.21962  0.43396  0.52120  1.0000
  H   H18       1.0  0.78040  0.56604  0.47881  1.0000
  H   H19       1.0  0.03131  0.10989  0.98109  1.0000
  H   H20       1.0  0.96868  0.89011  0.01891  1.0000
  H   H21       1.0  0.14745  0.16094  0.06198  1.0000
  H   H22       1.0  0.85255  0.83907  0.93802  1.0000
  H   H23       1.0  0.56011  0.11230  0.63525  1.0000
  H   H24       1.0  0.43990  0.88771  0.36475  1.0000
  H   H25       1.0  0.34711  0.12811  0.62428  1.0000
  H   H26       1.0  0.65290  0.87189  0.37572  1.0000
  H   H27       1.0  0.77902  0.01889  0.87644  1.0000
  H   H28       1.0  0.22099  0.98111  0.12356  1.0000
  H   H29       1.0  0.77990  0.12145  0.76927  1.0000
  H   H30       1.0  0.22010  0.87855  0.23073  1.0000
  C   C1        1.0  0.41093  0.71967  0.83906  1.0000
  C   C2        1.0  0.58907  0.28033  0.16094  1.0000
  C   C3        1.0  0.38673  0.59611  0.86981  1.0000
  C   C4        1.0  0.61327  0.40389  0.13018  1.0000
  C   C5        1.0  0.45625  0.51182  0.80239  1.0000
  C   C6        1.0  0.54375  0.48817  0.19761  1.0000
  C   C7        1.0  0.55115  0.55588  0.70276  1.0000
  C   C8        1.0  0.44885  0.44412  0.29724  1.0000
  C   C9        1.0  0.57464  0.68189  0.67350  1.0000
  C   C10       1.0  0.42537  0.31810  0.32650  1.0000
  C   C11       1.0  0.50471  0.76332  0.74054  1.0000
  C   C12       1.0  0.49530  0.23668  0.25946  1.0000
  C   C13       1.0  0.42845  0.38068  0.83148  1.0000
  C   C14       1.0  0.57154  0.61932  0.16852  1.0000
  C   C15       1.0  0.06753  0.40431  0.67568  1.0000
  C   C16       1.0  0.93247  0.59570  0.32432  1.0000
  C   C17       1.0  0.98583  0.45708  0.76165  1.0000
  C   C18       1.0  0.01417  0.54292  0.23835  1.0000
  C   C19       1.0  0.98833  0.58378  0.75964  1.0000
  C   C20       1.0  0.01167  0.41623  0.24036  1.0000
  C   C21       1.0  0.07418  0.65734  0.66928  1.0000
  C   C22       1.0  0.92581  0.34266  0.33072  1.0000
  C   C23       1.0  0.15900  0.60088  0.58481  1.0000
  C   C24       1.0  0.84101  0.39912  0.41519  1.0000
  C   C25       1.0  0.15518  0.47598  0.58775  1.0000
  C   C26       1.0  0.84483  0.52402  0.41226  1.0000
  C   C27       1.0  0.90100  0.64168  0.84845  1.0000
  C   C28       1.0  0.09899  0.35832  0.15155  1.0000
  S   S1        1.0  0.31669  0.82613  0.92099  1.0000
  S   S2        1.0  0.68331  0.17387  0.07900  1.0000
  S   S3        1.0  0.05255  0.24617  0.67420  1.0000
  S   S4        1.0  0.94745  0.75384  0.32580  1.0000
  O   O1        1.0  0.47204  0.88726  0.95969  1.0000
  O   O2        1.0  0.52796  0.11274  0.04031  1.0000
  O   O3        1.0  0.22062  0.92176  0.84749  1.0000
  O   O4        1.0  0.77937  0.07823  0.15251  1.0000
  O   O5        1.0  0.20536  0.76287  0.00936  1.0000
  O   O6        1.0  0.79464  0.23712  0.99064  1.0000
  O   O7        1.0  0.34047  0.33416  0.91746  1.0000
  O   O8        1.0  0.65952  0.66584  0.08254  1.0000
  O   O9        1.0  0.49699  0.30758  0.76585  1.0000
  O   O10       1.0  0.50300  0.69241  0.23415  1.0000
  O   O11       1.0  0.62069  0.48156  0.63421  1.0000
  O   O12       1.0  0.37931  0.51843  0.36579  1.0000
  O   O13       1.0  0.11170  0.18431  0.78179  1.0000
  O   O14       1.0  0.88830  0.81569  0.21821  1.0000
  O   O15       1.0  0.17197  0.21453  0.58331  1.0000
  O   O16       1.0  0.82803  0.78547  0.41669  1.0000
  O   O17       1.0  0.86224  0.22228  0.66552  1.0000
  O   O18       1.0  0.13775  0.77772  0.33448  1.0000
  O   O19       1.0  0.83300  0.56733  0.93141  1.0000
  O   O20       1.0  0.16698  0.43267  0.06859  1.0000
  O   O21       1.0  0.89186  0.75584  0.84418  1.0000
  O   O22       1.0  0.10814  0.24416  0.15582  1.0000
  O   O23       1.0  0.07952  0.77870  0.66160  1.0000
  O   O24       1.0  0.92048  0.22130  0.33840  1.0000
  O   O25       1.0  0.14924  0.09632  0.01250  1.0000
  O   O26       1.0  0.85076  0.90368  0.98750  1.0000
  O   O27       1.0  0.44534  0.08066  0.66615  1.0000
  O   O28       1.0  0.55467  0.91934  0.33384  1.0000
  O   O29       1.0  0.70717  0.05907  0.81645  1.0000
  O   O30       1.0  0.29284  0.94094  0.18355  1.0000
