data_image0
_chemical_formula_structural       Mg2H10C10O12
_chemical_formula_sum              "Mg2 H10 C10 O12"
_cell_length_a       7.07076
_cell_length_b       7.29991
_cell_length_c       8.32036
_cell_angle_alpha    90.4642
_cell_angle_beta     109.888
_cell_angle_gamma    95.207

_space_group_name_H-M_alt    "P 1"
_space_group_IT_number       1

loop_
  _space_group_symop_operation_xyz
  'x, y, z'

loop_
  _atom_site_type_symbol
  _atom_site_label
  _atom_site_symmetry_multiplicity
  _atom_site_fract_x
  _atom_site_fract_y
  _atom_site_fract_z
  _atom_site_occupancy
  Mg  Mg1       1.0  0.50000  0.50000  0.00000  1.0000
  Mg  Mg2       1.0  0.00000  0.00000  0.00000  1.0000
  H   H1        1.0  0.42057  0.31293  0.55750  1.0000
  H   H2        1.0  0.57943  0.68707  0.44250  1.0000
  H   H3        1.0  0.14393  0.42370  0.98281  1.0000
  H   H4        1.0  0.85607  0.57630  0.01720  1.0000
  H   H5        1.0  0.15575  0.63243  0.92220  1.0000
  H   H6        1.0  0.84425  0.36757  0.07781  1.0000
  H   H7        1.0  0.81116  0.84613  0.20744  1.0000
  H   H8        1.0  0.18884  0.15387  0.79256  1.0000
  H   H9        1.0  0.04175  0.82775  0.30456  1.0000
  H   H10       1.0  0.95825  0.17226  0.69545  1.0000
  C   C1        1.0  0.57607  0.14696  0.84373  1.0000
  C   C2        1.0  0.42391  0.85305  0.15627  1.0000
  C   C3        1.0  0.53300  0.06230  0.66840  1.0000
  C   C4        1.0  0.46699  0.93769  0.33161  1.0000
  C   C5        1.0  0.45391  0.17507  0.53082  1.0000
  C   C6        1.0  0.54608  0.82493  0.46918  1.0000
  C   C7        1.0  0.57905  0.88470  0.63713  1.0000
  C   C8        1.0  0.42095  0.11530  0.36287  1.0000
  C   C9        1.0  0.64695  0.74819  0.77511  1.0000
  C   C10       1.0  0.35304  0.25179  0.22488  1.0000
  O   O1        1.0  0.44426  0.24186  0.86678  1.0000
  O   O2        1.0  0.55574  0.75813  0.13322  1.0000
  O   O3        1.0  0.51527  0.62175  0.77938  1.0000
  O   O4        1.0  0.48475  0.37825  0.22062  1.0000
  O   O5        1.0  0.83076  0.76420  0.87636  1.0000
  O   O6        1.0  0.16924  0.23580  0.12364  1.0000
  O   O7        1.0  0.74699  0.13251  0.95778  1.0000
  O   O8        1.0  0.25301  0.86749  0.04223  1.0000
  O   O9        1.0  0.18633  0.50657  0.90433  1.0000
  O   O10       1.0  0.81367  0.49344  0.09567  1.0000
  O   O11       1.0  0.95030  0.90474  0.22620  1.0000
  O   O12       1.0  0.04969  0.09527  0.77381  1.0000
