data_image0
_chemical_formula_structural       Mg2H14C10O14
_chemical_formula_sum              "Mg2 H14 C10 O14"
_cell_length_a       5.9298
_cell_length_b       7.31637
_cell_length_c       8.98753
_cell_angle_alpha    105.394
_cell_angle_beta     105.639
_cell_angle_gamma    97.209

_space_group_name_H-M_alt    "P 1"
_space_group_IT_number       1

loop_
  _space_group_symop_operation_xyz
  'x, y, z'

loop_
  _atom_site_type_symbol
  _atom_site_label
  _atom_site_symmetry_multiplicity
  _atom_site_fract_x
  _atom_site_fract_y
  _atom_site_fract_z
  _atom_site_occupancy
  Mg  Mg1       1.0  0.00657  0.82271  0.68947  1.0000
  Mg  Mg2       1.0  0.99343  0.17729  0.31053  1.0000
  H   H1        1.0  0.22413  0.96449  0.04532  1.0000
  H   H2        1.0  0.77587  0.03550  0.95468  1.0000
  H   H3        1.0  0.34826  0.05404  0.94107  1.0000
  H   H4        1.0  0.65174  0.94596  0.05893  1.0000
  H   H5        1.0  0.26657  0.71187  0.50820  1.0000
  H   H6        1.0  0.73343  0.28813  0.49180  1.0000
  H   H7        1.0  0.26984  0.56194  0.60806  1.0000
  H   H8        1.0  0.73016  0.43806  0.39194  1.0000
  H   H9        1.0  0.70317  0.07347  0.70901  1.0000
  H   H10       1.0  0.29684  0.92653  0.29099  1.0000
  H   H11       1.0  0.56981  0.86302  0.70369  1.0000
  H   H12       1.0  0.43019  0.13698  0.29631  1.0000
  H   H13       1.0  0.08881  0.31222  0.93502  1.0000
  H   H14       1.0  0.91119  0.68778  0.06498  1.0000
  C   C1        1.0  0.24331  0.23811  0.67346  1.0000
  C   C2        1.0  0.75669  0.76189  0.32654  1.0000
  C   C3        1.0  0.37970  0.37235  0.84208  1.0000
  C   C4        1.0  0.62030  0.62765  0.15792  1.0000
  C   C5        1.0  0.26987  0.39375  0.96320  1.0000
  C   C6        1.0  0.73014  0.60626  0.03681  1.0000
  C   C7        1.0  0.61347  0.47844  0.88009  1.0000
  C   C8        1.0  0.38653  0.52156  0.11991  1.0000
  C   C9        1.0  0.74266  0.45140  0.75603  1.0000
  C   C10       1.0  0.25734  0.54860  0.24397  1.0000
  O   O1        1.0  0.17087  0.06387  0.66027  1.0000
  O   O2        1.0  0.82913  0.93613  0.33973  1.0000
  O   O3        1.0  0.20880  0.31042  0.55649  1.0000
  O   O4        1.0  0.79120  0.68958  0.44350  1.0000
  O   O5        1.0  0.86745  0.59956  0.74931  1.0000
  O   O6        1.0  0.13255  0.40044  0.25069  1.0000
  O   O7        1.0  0.72072  0.27858  0.66539  1.0000
  O   O8        1.0  0.27928  0.72143  0.33461  1.0000
  O   O9        1.0  0.23875  0.93829  0.93386  1.0000
  O   O10       1.0  0.76124  0.06171  0.06614  1.0000
  O   O11       1.0  0.28520  0.70386  0.62188  1.0000
  O   O12       1.0  0.71480  0.29614  0.37812  1.0000
  O   O13       1.0  0.72781  0.95705  0.74605  1.0000
  O   O14       1.0  0.27219  0.04295  0.25395  1.0000
