data_image0
_chemical_formula_structural       Mg4H36C20O32
_chemical_formula_sum              "Mg4 H36 C20 O32"
_cell_length_a       5.01899
_cell_length_b       11.1961
_cell_length_c       14.3945
_cell_angle_alpha    90.0001
_cell_angle_beta     89.9998
_cell_angle_gamma    99.9194

_space_group_name_H-M_alt    "P 1"
_space_group_IT_number       1

loop_
  _space_group_symop_operation_xyz
  'x, y, z'

loop_
  _atom_site_type_symbol
  _atom_site_label
  _atom_site_symmetry_multiplicity
  _atom_site_fract_x
  _atom_site_fract_y
  _atom_site_fract_z
  _atom_site_occupancy
  Mg  Mg1       1.0  0.91218  0.85049  0.85732  1.0000
  Mg  Mg2       1.0  0.58783  0.64951  0.35732  1.0000
  Mg  Mg3       1.0  0.08782  0.14951  0.14268  1.0000
  Mg  Mg4       1.0  0.41218  0.35049  0.64268  1.0000
  H   H1        1.0  0.81565  0.62228  0.10974  1.0000
  H   H2        1.0  0.68435  0.87773  0.60975  1.0000
  H   H3        1.0  0.18433  0.37772  0.89025  1.0000
  H   H4        1.0  0.31566  0.12228  0.39025  1.0000
  H   H5        1.0  0.24734  0.03713  0.96035  1.0000
  H   H6        1.0  0.25266  0.46287  0.46035  1.0000
  H   H7        1.0  0.75266  0.96286  0.03965  1.0000
  H   H8        1.0  0.74734  0.53714  0.53965  1.0000
  H   H9        1.0  0.37053  0.91797  0.94361  1.0000
  H   H10       1.0  0.12947  0.58203  0.44361  1.0000
  H   H11       1.0  0.62946  0.08202  0.05639  1.0000
  H   H12       1.0  0.87053  0.41798  0.55639  1.0000
  H   H13       1.0  0.27889  0.93195  0.71747  1.0000
  H   H14       1.0  0.22111  0.56804  0.21747  1.0000
  H   H15       1.0  0.72112  0.06805  0.28253  1.0000
  H   H16       1.0  0.77889  0.43195  0.78253  1.0000
  H   H17       1.0  0.13037  0.80157  0.68582  1.0000
  H   H18       1.0  0.36964  0.69843  0.18582  1.0000
  H   H19       1.0  0.86963  0.19843  0.31418  1.0000
  H   H20       1.0  0.63036  0.30157  0.81418  1.0000
  H   H21       1.0  0.60296  0.66812  0.75132  1.0000
  H   H22       1.0  0.89704  0.83188  0.25132  1.0000
  H   H23       1.0  0.39704  0.33188  0.24868  1.0000
  H   H24       1.0  0.10297  0.16812  0.74868  1.0000
  H   H25       1.0  0.44725  0.78096  0.76405  1.0000
  H   H26       1.0  0.05275  0.71904  0.26405  1.0000
  H   H27       1.0  0.55275  0.21904  0.23595  1.0000
  H   H28       1.0  0.94725  0.28096  0.73595  1.0000
  H   H29       1.0  0.68657  0.02083  0.76059  1.0000
  H   H30       1.0  0.81344  0.47917  0.26059  1.0000
  H   H31       1.0  0.31343  0.97917  0.23941  1.0000
  H   H32       1.0  0.18657  0.52083  0.73941  1.0000
  H   H33       1.0  0.73210  0.07280  0.86091  1.0000
  H   H34       1.0  0.76791  0.42721  0.36090  1.0000
  H   H35       1.0  0.26790  0.92720  0.13909  1.0000
  H   H36       1.0  0.23210  0.57280  0.63909  1.0000
  C   C1        1.0  0.50446  0.75828  0.02609  1.0000
  C   C2        1.0  0.99554  0.74172  0.52609  1.0000
  C   C3        1.0  0.49554  0.24172  0.97391  1.0000
  C   C4        1.0  0.00446  0.25828  0.47391  1.0000
  C   C5        1.0  0.49664  0.62482  0.00989  1.0000
  C   C6        1.0  0.00336  0.87518  0.50989  1.0000
  C   C7        1.0  0.50335  0.37517  0.99011  1.0000
  C   C8        1.0  0.99664  0.12483  0.49011  1.0000
  C   C9        1.0  0.67506  0.56869  0.06179  1.0000
  C   C10       1.0  0.82494  0.93131  0.56180  1.0000
  C   C11       1.0  0.32492  0.43131  0.93821  1.0000
  C   C12       1.0  0.17507  0.06870  0.43821  1.0000
  C   C13       1.0  0.31799  0.55516  0.94720  1.0000
  C   C14       1.0  0.18201  0.94484  0.44721  1.0000
  C   C15       1.0  0.68200  0.44484  0.05280  1.0000
  C   C16       1.0  0.81799  0.05516  0.55280  1.0000
  C   C17       1.0  0.11658  0.61070  0.89169  1.0000
  C   C18       1.0  0.38342  0.88931  0.39170  1.0000
  C   C19       1.0  0.88341  0.38930  0.10830  1.0000
  C   C20       1.0  0.61659  0.11070  0.60831  1.0000
  O   O1        1.0  0.63206  0.83614  0.96889  1.0000
  O   O2        1.0  0.86794  0.66386  0.46889  1.0000
  O   O3        1.0  0.36793  0.16385  0.03111  1.0000
  O   O4        1.0  0.13207  0.33614  0.53111  1.0000
  O   O5        1.0  0.08047  0.71509  0.91616  1.0000
  O   O6        1.0  0.41953  0.78491  0.41616  1.0000
  O   O7        1.0  0.91952  0.28490  0.08384  1.0000
  O   O8        1.0  0.58047  0.21509  0.58384  1.0000
  O   O9        1.0  0.39984  0.78988  0.09999  1.0000
  O   O10       1.0  0.10017  0.71012  0.60000  1.0000
  O   O11       1.0  0.60016  0.21011  0.90000  1.0000
  O   O12       1.0  0.89985  0.28988  0.40000  1.0000
  O   O13       1.0  0.99562  0.55222  0.82317  1.0000
  O   O14       1.0  0.50438  0.94778  0.32318  1.0000
  O   O15       1.0  0.00438  0.44778  0.17682  1.0000
  O   O16       1.0  0.49562  0.05222  0.67683  1.0000
  O   O17       1.0  0.21232  0.95672  0.93027  1.0000
  O   O18       1.0  0.28768  0.54328  0.43027  1.0000
  O   O19       1.0  0.78768  0.04328  0.06974  1.0000
  O   O20       1.0  0.71232  0.45672  0.56973  1.0000
  O   O21       1.0  0.18206  0.85365  0.74273  1.0000
  O   O22       1.0  0.31794  0.64635  0.24273  1.0000
  O   O23       1.0  0.81795  0.14635  0.25727  1.0000
  O   O24       1.0  0.68206  0.35365  0.75727  1.0000
  O   O25       1.0  0.62330  0.75205  0.77237  1.0000
  O   O26       1.0  0.87670  0.74795  0.27237  1.0000
  O   O27       1.0  0.37670  0.24795  0.22763  1.0000
  O   O28       1.0  0.12330  0.25205  0.72763  1.0000
  O   O29       1.0  0.79907  0.01581  0.81774  1.0000
  O   O30       1.0  0.70094  0.48419  0.31774  1.0000
  O   O31       1.0  0.20093  0.98419  0.18226  1.0000
  O   O32       1.0  0.29906  0.51581  0.68226  1.0000
