data_image0
_chemical_formula_structural       Cu4H20C36N12O8
_chemical_formula_sum              "Cu4 H20 C36 N12 O8"
_cell_length_a       7.52265
_cell_length_b       7.82228
_cell_length_c       13.871
_cell_angle_alpha    89.9995
_cell_angle_beta     90.0008
_cell_angle_gamma    93.8075

_space_group_name_H-M_alt    "P 1"
_space_group_IT_number       1

loop_
  _space_group_symop_operation_xyz
  'x, y, z'

loop_
  _atom_site_type_symbol
  _atom_site_label
  _atom_site_symmetry_multiplicity
  _atom_site_fract_x
  _atom_site_fract_y
  _atom_site_fract_z
  _atom_site_occupancy
  Cu  Cu1       1.0  0.05879  0.70083  0.41812  1.0000
  Cu  Cu2       1.0  0.44121  0.29917  0.91812  1.0000
  Cu  Cu3       1.0  0.94120  0.29918  0.58189  1.0000
  Cu  Cu4       1.0  0.55879  0.70081  0.08188  1.0000
  H   H1        1.0  0.41477  0.06362  0.65922  1.0000
  H   H2        1.0  0.08521  0.93637  0.15921  1.0000
  H   H3        1.0  0.58523  0.93639  0.34078  1.0000
  H   H4        1.0  0.91479  0.06363  0.84079  1.0000
  H   H5        1.0  0.44739  0.32580  0.56143  1.0000
  H   H6        1.0  0.05259  0.67419  0.06142  1.0000
  H   H7        1.0  0.55263  0.67421  0.43858  1.0000
  H   H8        1.0  0.94739  0.32579  0.93859  1.0000
  H   H9        1.0  0.13820  0.05866  0.33727  1.0000
  H   H10       1.0  0.36179  0.94134  0.83728  1.0000
  H   H11       1.0  0.86179  0.94136  0.66272  1.0000
  H   H12       1.0  0.63821  0.05864  0.16273  1.0000
  H   H13       1.0  0.30204  0.33290  0.39732  1.0000
  H   H14       1.0  0.19793  0.66710  0.89731  1.0000
  H   H15       1.0  0.69796  0.66711  0.60269  1.0000
  H   H16       1.0  0.80206  0.33288  0.10270  1.0000
  H   H17       1.0  0.35506  0.73627  0.74547  1.0000
  H   H18       1.0  0.14493  0.26371  0.24546  1.0000
  H   H19       1.0  0.64495  0.26372  0.25453  1.0000
  H   H20       1.0  0.85506  0.73629  0.75454  1.0000
  C   C1        1.0  0.35470  0.06528  0.58773  1.0000
  C   C2        1.0  0.14530  0.93472  0.08772  1.0000
  C   C3        1.0  0.64531  0.93473  0.41227  1.0000
  C   C4        1.0  0.85471  0.06528  0.91228  1.0000
  C   C5        1.0  0.26112  0.92050  0.54982  1.0000
  C   C6        1.0  0.23889  0.07949  0.04982  1.0000
  C   C7        1.0  0.73890  0.07951  0.45018  1.0000
  C   C8        1.0  0.76112  0.92050  0.95019  1.0000
  C   C9        1.0  0.37124  0.21406  0.53244  1.0000
  C   C10       1.0  0.12875  0.78594  0.03243  1.0000
  C   C11       1.0  0.62877  0.78595  0.46757  1.0000
  C   C12       1.0  0.87125  0.21406  0.96758  1.0000
  C   C13       1.0  0.20275  0.06725  0.40762  1.0000
  C   C14       1.0  0.29724  0.93275  0.90762  1.0000
  C   C15       1.0  0.79725  0.93276  0.59238  1.0000
  C   C16       1.0  0.70276  0.06724  0.09239  1.0000
  C   C17       1.0  0.29373  0.21656  0.44098  1.0000
  C   C18       1.0  0.20626  0.78344  0.94097  1.0000
  C   C19       1.0  0.70626  0.78344  0.55903  1.0000
  C   C20       1.0  0.79374  0.21655  0.05903  1.0000
  C   C21       1.0  0.22881  0.75736  0.59945  1.0000
  C   C22       1.0  0.27118  0.24263  0.09946  1.0000
  C   C23       1.0  0.77119  0.24264  0.40054  1.0000
  C   C24       1.0  0.72882  0.75736  0.90055  1.0000
  C   C25       1.0  0.17542  0.52154  0.68709  1.0000
  C   C26       1.0  0.32459  0.47845  0.18708  1.0000
  C   C27       1.0  0.82458  0.47846  0.31291  1.0000
  C   C28       1.0  0.67543  0.52154  0.81291  1.0000
  C   C29       1.0  0.26854  0.68379  0.68897  1.0000
  C   C30       1.0  0.23146  0.31620  0.18896  1.0000
  C   C31       1.0  0.73146  0.31621  0.31103  1.0000
  C   C32       1.0  0.76855  0.68378  0.81104  1.0000
  C   C33       1.0  0.13730  0.37471  0.75379  1.0000
  C   C34       1.0  0.36269  0.62528  0.25380  1.0000
  C   C35       1.0  0.86269  0.62527  0.24620  1.0000
  C   C36       1.0  0.63731  0.37473  0.74620  1.0000
  N   N1        1.0  0.18650  0.92361  0.46024  1.0000
  N   N2        1.0  0.31350  0.07638  0.96025  1.0000
  N   N3        1.0  0.81351  0.07640  0.53975  1.0000
  N   N4        1.0  0.68650  0.92360  0.03976  1.0000
  N   N5        1.0  0.12212  0.64109  0.54945  1.0000
  N   N6        1.0  0.37789  0.35891  0.04947  1.0000
  N   N7        1.0  0.87790  0.35893  0.45053  1.0000
  N   N8        1.0  0.62211  0.64108  0.95054  1.0000
  N   N9        1.0  0.09151  0.50413  0.60085  1.0000
  N   N10       1.0  0.40850  0.49588  0.10086  1.0000
  N   N11       1.0  0.90850  0.49589  0.39914  1.0000
  N   N12       1.0  0.59151  0.50412  0.89914  1.0000
  O   O1        1.0  0.04328  0.24608  0.71656  1.0000
  O   O2        1.0  0.45671  0.75390  0.21657  1.0000
  O   O3        1.0  0.95670  0.75389  0.28342  1.0000
  O   O4        1.0  0.54330  0.24611  0.78342  1.0000
  O   O5        1.0  0.18964  0.38465  0.83988  1.0000
  O   O6        1.0  0.31036  0.61532  0.33989  1.0000
  O   O7        1.0  0.81036  0.61531  0.16010  1.0000
  O   O8        1.0  0.68963  0.38470  0.66010  1.0000
