data_image0
_chemical_formula_structural       Co2H8C8N16
_chemical_formula_sum              "Co2 H8 C8 N16"
_cell_length_a       7.33375
_cell_length_b       7.98853
_cell_length_c       7.96084
_cell_angle_alpha    93.4611
_cell_angle_beta     117.048
_cell_angle_gamma    115.836

_space_group_name_H-M_alt    "P 1"
_space_group_IT_number       1

loop_
  _space_group_symop_operation_xyz
  'x, y, z'

loop_
  _atom_site_type_symbol
  _atom_site_label
  _atom_site_symmetry_multiplicity
  _atom_site_fract_x
  _atom_site_fract_y
  _atom_site_fract_z
  _atom_site_occupancy
  Co  Co1       1.0  1.00000  1.00000  0.50000  1.0000
  Co  Co2       1.0  1.00000  0.50000  1.00000  1.0000
  H   H1        1.0  0.09424  0.25521  0.26578  1.0000
  H   H2        1.0  0.90576  0.74478  0.73422  1.0000
  H   H3        1.0  0.57958  0.03223  0.41373  1.0000
  H   H4        1.0  0.58363  0.41618  0.05596  1.0000
  H   H5        1.0  0.42042  0.96778  0.58627  1.0000
  H   H6        1.0  0.41637  0.58382  0.94404  1.0000
  H   H7        1.0  0.39381  0.21444  0.22609  1.0000
  H   H8        1.0  0.60620  0.78556  0.77391  1.0000
  C   C1        1.0  0.93654  0.24516  0.25489  1.0000
  C   C2        1.0  0.06345  0.75484  0.74511  1.0000
  C   C3        1.0  0.64939  0.12078  0.33565  1.0000
  C   C4        1.0  0.65212  0.33255  0.13885  1.0000
  C   C5        1.0  0.35061  0.87922  0.66435  1.0000
  C   C6        1.0  0.34787  0.66745  0.86116  1.0000
  C   C7        1.0  0.54831  0.22167  0.23206  1.0000
  C   C8        1.0  0.45169  0.77834  0.76795  1.0000
  N   N1        1.0  0.84417  0.13224  0.34706  1.0000
  N   N2        1.0  0.84575  0.34312  0.14850  1.0000
  N   N3        1.0  0.15583  0.86776  0.65294  1.0000
  N   N4        1.0  0.15424  0.65688  0.85150  1.0000
  N   N5        1.0  0.10676  0.97628  0.31601  1.0000
  N   N6        1.0  0.10060  0.30246  0.96513  1.0000
  N   N7        1.0  0.89323  0.02372  0.68398  1.0000
  N   N8        1.0  0.89939  0.69753  0.03486  1.0000
  N   N9        1.0  0.99897  0.83338  0.17627  1.0000
  N   N10       1.0  0.00104  0.16663  0.82374  1.0000
  N   N11       1.0  0.70402  0.73302  0.34041  1.0000
  N   N12       1.0  0.67949  0.34688  0.72469  1.0000
  N   N13       1.0  0.29598  0.26698  0.65959  1.0000
  N   N14       1.0  0.32051  0.65312  0.27531  1.0000
  N   N15       1.0  0.51304  0.69686  0.30925  1.0000
  N   N16       1.0  0.48696  0.30314  0.69075  1.0000
