data_image0
_chemical_formula_structural       ZnH27C24SN3O8
_chemical_formula_sum              "Zn1 H27 C24 S1 N3 O8"
_cell_length_a       5.13266
_cell_length_b       10.029
_cell_length_c       12.4614
_cell_angle_alpha    77.0731
_cell_angle_beta     82.3742
_cell_angle_gamma    82.1139

_space_group_name_H-M_alt    "P 1"
_space_group_IT_number       1

loop_
  _space_group_symop_operation_xyz
  'x, y, z'

loop_
  _atom_site_type_symbol
  _atom_site_label
  _atom_site_symmetry_multiplicity
  _atom_site_fract_x
  _atom_site_fract_y
  _atom_site_fract_z
  _atom_site_occupancy
  Zn  Zn1       1.0  0.24600  0.47553  0.16822  1.0000
  H   H1        1.0  0.05405  0.77910  0.00829  1.0000
  H   H2        1.0  0.13276  0.93756  0.82800  1.0000
  H   H3        1.0  0.57470  0.73800  0.70328  1.0000
  H   H4        1.0  0.51854  0.58602  0.89113  1.0000
  H   H5        1.0  0.76866  0.92855  0.57936  1.0000
  H   H6        1.0  0.22259  0.03541  0.66443  1.0000
  H   H7        1.0  0.40937  0.22202  0.55478  1.0000
  H   H8        1.0  0.46308  0.39464  0.37712  1.0000
  H   H9        1.0  0.93339  0.22244  0.23783  1.0000
  H   H10       1.0  0.85728  0.04507  0.40782  1.0000
  H   H11       1.0  0.17322  0.22628  0.86715  1.0000
  H   H12       1.0  0.13954  0.03876  0.02680  1.0000
  H   H13       1.0  0.42363  0.01269  0.93423  1.0000
  H   H14       1.0  0.41227  0.09163  0.15967  1.0000
  H   H15       1.0  0.69805  0.08626  0.06602  1.0000
  H   H16       1.0  0.18448  0.46465  0.76042  1.0000
  H   H17       1.0  0.03968  0.66605  0.61951  1.0000
  H   H18       1.0  0.76185  0.60219  0.40961  1.0000
  H   H19       1.0  0.90883  0.39784  0.55111  1.0000
  H   H20       1.0  0.10982  0.76067  0.39197  1.0000
  H   H21       1.0  0.44454  0.79096  0.34763  1.0000
  H   H22       1.0  0.26401  0.86447  0.45639  1.0000
  H   H23       1.0  0.68104  0.29000  0.92894  1.0000
  H   H24       1.0  0.73305  0.41323  0.10783  1.0000
  H   H25       1.0  0.69110  0.57460  0.07940  1.0000
  H   H26       1.0  0.93554  0.70586  0.21042  1.0000
  H   H27       1.0  0.25017  0.71203  0.18371  1.0000
  C   C1        1.0  0.95206  0.77167  0.93869  1.0000
  C   C2        1.0  0.99629  0.86070  0.83699  1.0000
  C   C3        1.0  0.86319  0.85069  0.74783  1.0000
  C   C4        1.0  0.68553  0.75055  0.76863  1.0000
  C   C5        1.0  0.65396  0.66520  0.87313  1.0000
  C   C6        1.0  0.90439  0.93715  0.63758  1.0000
  C   C7        1.0  0.09096  0.02509  0.60549  1.0000
  C   C8        1.0  0.12543  0.11912  0.49871  1.0000
  C   C9        1.0  0.30155  0.21903  0.48592  1.0000
  C   C10       1.0  0.33118  0.31517  0.38763  1.0000
  C   C11       1.0  0.03341  0.21951  0.31039  1.0000
  C   C12       1.0  0.99230  0.12048  0.40639  1.0000
  C   C13       1.0  0.14364  0.31723  0.00705  1.0000
  C   C14       1.0  0.29667  0.22414  0.93309  1.0000
  C   C15       1.0  0.33499  0.07314  0.99602  1.0000
  C   C16       1.0  0.50820  0.04339  0.09095  1.0000
  C   C17       1.0  0.56203  0.88919  0.13899  1.0000
  C   C18       1.0  0.55535  0.41810  0.66366  1.0000
  C   C19       1.0  0.31164  0.49426  0.68397  1.0000
  C   C20       1.0  0.23106  0.60807  0.60419  1.0000
  C   C21       1.0  0.38894  0.64898  0.50420  1.0000
  C   C22       1.0  0.63422  0.57184  0.48627  1.0000
  C   C23       1.0  0.71759  0.45679  0.56510  1.0000
  C   C24       1.0  0.29785  0.77265  0.42009  1.0000
  S   S1        1.0  0.65480  0.26159  0.75502  1.0000
  N   N1        1.0  0.78478  0.67453  0.95717  1.0000
  N   N2        1.0  0.19816  0.31704  0.30069  1.0000
  N   N3        1.0  0.54410  0.27704  0.87972  1.0000
  O   O1        1.0  0.90546  0.29797  0.04080  1.0000
  O   O2        1.0  0.26891  0.40642  0.03164  1.0000
  O   O3        1.0  0.74720  0.84920  0.20114  1.0000
  O   O4        1.0  0.41487  0.81170  0.11299  1.0000
  O   O5        1.0  0.52455  0.15612  0.72724  1.0000
  O   O6        1.0  0.94117  0.24861  0.74565  1.0000
  O   O7        1.0  0.64539  0.49227  0.14231  1.0000
  O   O8        1.0  0.11091  0.64400  0.21795  1.0000
