data_image0
_chemical_formula_structural       Cs4H20C24Cl8O24
_chemical_formula_sum              "Cs4 H20 C24 Cl8 O24"
_cell_length_a       7.6551
_cell_length_b       9.23816
_cell_length_c       14.9126
_cell_angle_alpha    95.7239
_cell_angle_beta     90.001
_cell_angle_gamma    89.9995

_space_group_name_H-M_alt    "P 1"
_space_group_IT_number       1

loop_
  _space_group_symop_operation_xyz
  'x, y, z'

loop_
  _atom_site_type_symbol
  _atom_site_label
  _atom_site_symmetry_multiplicity
  _atom_site_fract_x
  _atom_site_fract_y
  _atom_site_fract_z
  _atom_site_occupancy
  Cs  Cs1       1.0  0.43307  0.01855  0.84183  1.0000
  Cs  Cs2       1.0  0.93305  0.48147  0.65818  1.0000
  Cs  Cs3       1.0  0.56696  0.98145  0.15817  1.0000
  Cs  Cs4       1.0  0.06692  0.51854  0.34183  1.0000
  H   H1        1.0  0.03920  0.11388  0.73928  1.0000
  H   H2        1.0  0.53920  0.38614  0.76072  1.0000
  H   H3        1.0  0.96081  0.88614  0.26073  1.0000
  H   H4        1.0  0.46080  0.61386  0.23929  1.0000
  H   H5        1.0  0.96069  0.05806  0.84337  1.0000
  H   H6        1.0  0.46066  0.44194  0.65663  1.0000
  H   H7        1.0  0.03935  0.94194  0.15663  1.0000
  H   H8        1.0  0.53931  0.55806  0.34338  1.0000
  H   H9        1.0  0.84438  0.90111  0.92911  1.0000
  H   H10       1.0  0.34432  0.59888  0.57088  1.0000
  H   H11       1.0  0.15566  0.09888  0.07088  1.0000
  H   H12       1.0  0.65564  0.40112  0.42912  1.0000
  H   H13       1.0  0.78479  0.06743  0.94184  1.0000
  H   H14       1.0  0.28474  0.43257  0.55815  1.0000
  H   H15       1.0  0.21525  0.93256  0.05815  1.0000
  H   H16       1.0  0.71523  0.56743  0.44186  1.0000
  H   H17       1.0  0.93937  0.77038  0.16272  1.0000
  H   H18       1.0  0.43932  0.72963  0.33730  1.0000
  H   H19       1.0  0.06067  0.22963  0.83729  1.0000
  H   H20       1.0  0.56064  0.27037  0.66271  1.0000
  C   C1        1.0  0.64358  0.41958  0.92304  1.0000
  C   C2        1.0  0.14353  0.08044  0.57696  1.0000
  C   C3        1.0  0.35647  0.58042  0.07696  1.0000
  C   C4        1.0  0.85643  0.91957  0.42303  1.0000
  C   C5        1.0  0.79930  0.40304  0.07160  1.0000
  C   C6        1.0  0.29927  0.09696  0.42841  1.0000
  C   C7        1.0  0.20073  0.59696  0.92841  1.0000
  C   C8        1.0  0.70069  0.90303  0.57160  1.0000
  C   C9        1.0  0.83929  0.55177  0.07880  1.0000
  C   C10       1.0  0.33924  0.94824  0.42121  1.0000
  C   C11       1.0  0.16075  0.44823  0.92121  1.0000
  C   C12       1.0  0.66070  0.05177  0.57879  1.0000
  C   C13       1.0  0.78340  0.64034  0.00163  1.0000
  C   C14       1.0  0.28336  0.85967  0.49837  1.0000
  C   C15       1.0  0.21665  0.35966  0.99837  1.0000
  C   C16       1.0  0.71659  0.14033  0.50163  1.0000
  C   C17       1.0  0.70091  0.33164  0.00017  1.0000
  C   C18       1.0  0.20085  0.16837  0.49983  1.0000
  C   C19       1.0  0.29914  0.66835  0.99983  1.0000
  C   C20       1.0  0.79910  0.83165  0.50017  1.0000
  C   C21       1.0  0.69041  0.56703  0.92838  1.0000
  C   C22       1.0  0.19037  0.93298  0.57161  1.0000
  C   C23       1.0  0.30964  0.43295  0.07161  1.0000
  C   C24       1.0  0.80959  0.06703  0.42839  1.0000
  Cl  Cl1       1.0  0.63470  0.66474  0.83952  1.0000
  Cl  Cl2       1.0  0.13468  0.83527  0.66047  1.0000
  Cl  Cl3       1.0  0.36534  0.33525  0.16048  1.0000
  Cl  Cl4       1.0  0.86527  0.16474  0.33952  1.0000
  Cl  Cl5       1.0  0.86862  0.29948  0.15512  1.0000
  Cl  Cl6       1.0  0.36854  0.20051  0.34486  1.0000
  Cl  Cl7       1.0  0.13145  0.70052  0.84487  1.0000
  Cl  Cl8       1.0  0.63141  0.79948  0.65513  1.0000
  O   O1        1.0  0.05027  0.11899  0.80856  1.0000
  O   O2        1.0  0.55025  0.38101  0.69144  1.0000
  O   O3        1.0  0.94977  0.88102  0.19144  1.0000
  O   O4        1.0  0.44972  0.61899  0.30857  1.0000
  O   O5        1.0  0.83282  0.99052  0.89728  1.0000
  O   O6        1.0  0.33276  0.50948  0.60271  1.0000
  O   O7        1.0  0.16722  0.00947  0.10271  1.0000
  O   O8        1.0  0.66719  0.49053  0.39730  1.0000
  O   O9        1.0  0.55841  0.35095  0.85907  1.0000
  O   O10       1.0  0.05837  0.14906  0.64093  1.0000
  O   O11       1.0  0.44162  0.64904  0.14093  1.0000
  O   O12       1.0  0.94158  0.85096  0.35908  1.0000
  O   O13       1.0  0.82495  0.77279  0.00879  1.0000
  O   O14       1.0  0.32490  0.72721  0.49122  1.0000
  O   O15       1.0  0.17509  0.22720  0.99121  1.0000
  O   O16       1.0  0.67504  0.27279  0.50879  1.0000
  O   O17       1.0  0.92233  0.61656  0.14512  1.0000
  O   O18       1.0  0.42231  0.88343  0.35487  1.0000
  O   O19       1.0  0.07769  0.38344  0.85487  1.0000
  O   O20       1.0  0.57766  0.11656  0.64512  1.0000
  O   O21       1.0  0.65902  0.19892  0.99541  1.0000
  O   O22       1.0  0.15895  0.30108  0.50458  1.0000
  O   O23       1.0  0.34105  0.80107  0.00459  1.0000
  O   O24       1.0  0.84101  0.69892  0.49542  1.0000
