data_image0
_chemical_formula_structural       K4H20C24Cl8O24
_chemical_formula_sum              "K4 H20 C24 Cl8 O24"
_cell_length_a       6.38721
_cell_length_b       9.8986
_cell_length_c       15.264
_cell_angle_alpha    89.9996
_cell_angle_beta     90.0003
_cell_angle_gamma    99.8767

_space_group_name_H-M_alt    "P 1"
_space_group_IT_number       1

loop_
  _space_group_symop_operation_xyz
  'x, y, z'

loop_
  _atom_site_type_symbol
  _atom_site_label
  _atom_site_symmetry_multiplicity
  _atom_site_fract_x
  _atom_site_fract_y
  _atom_site_fract_z
  _atom_site_occupancy
  K   K1        1.0  0.14982  0.18867  0.93799  1.0000
  K   K2        1.0  0.35015  0.81133  0.43799  1.0000
  K   K3        1.0  0.85018  0.81133  0.06201  1.0000
  K   K4        1.0  0.64983  0.18866  0.56201  1.0000
  H   H1        1.0  0.03668  0.48727  0.65608  1.0000
  H   H2        1.0  0.46331  0.51273  0.15607  1.0000
  H   H3        1.0  0.96331  0.51273  0.34392  1.0000
  H   H4        1.0  0.53669  0.48727  0.84392  1.0000
  H   H5        1.0  0.66085  0.32797  0.88547  1.0000
  H   H6        1.0  0.83916  0.67203  0.38548  1.0000
  H   H7        1.0  0.33916  0.67203  0.11452  1.0000
  H   H8        1.0  0.16084  0.32797  0.61452  1.0000
  H   H9        1.0  0.54994  0.37255  0.97338  1.0000
  H   H10       1.0  0.95006  0.62745  0.47339  1.0000
  H   H11       1.0  0.45006  0.62745  0.02661  1.0000
  H   H12       1.0  0.04993  0.37255  0.52661  1.0000
  H   H13       1.0  0.79731  0.20314  0.79000  1.0000
  H   H14       1.0  0.70269  0.79685  0.29001  1.0000
  H   H15       1.0  0.20269  0.79685  0.21000  1.0000
  H   H16       1.0  0.29731  0.20315  0.71000  1.0000
  H   H17       1.0  0.91506  0.35937  0.79024  1.0000
  H   H18       1.0  0.58494  0.64063  0.29024  1.0000
  H   H19       1.0  0.08495  0.64063  0.20976  1.0000
  H   H20       1.0  0.41506  0.35937  0.70976  1.0000
  C   C1        1.0  0.07133  0.64913  0.73770  1.0000
  C   C2        1.0  0.42867  0.35087  0.23770  1.0000
  C   C3        1.0  0.92866  0.35087  0.26230  1.0000
  C   C4        1.0  0.57134  0.64913  0.76230  1.0000
  C   C5        1.0  0.09534  0.74363  0.65987  1.0000
  C   C6        1.0  0.40465  0.25637  0.15987  1.0000
  C   C7        1.0  0.90464  0.25637  0.34013  1.0000
  C   C8        1.0  0.59537  0.74363  0.84013  1.0000
  C   C9        1.0  0.13020  0.88685  0.67681  1.0000
  C   C10       1.0  0.36980  0.11314  0.17681  1.0000
  C   C11       1.0  0.86979  0.11315  0.32319  1.0000
  C   C12       1.0  0.63021  0.88685  0.82319  1.0000
  C   C13       1.0  0.15168  0.94433  0.76182  1.0000
  C   C14       1.0  0.34832  0.05567  0.26182  1.0000
  C   C15       1.0  0.84832  0.05568  0.23818  1.0000
  C   C16       1.0  0.65169  0.94432  0.73818  1.0000
  C   C17       1.0  0.11816  0.84488  0.84007  1.0000
  C   C18       1.0  0.38184  0.15512  0.34007  1.0000
  C   C19       1.0  0.88184  0.15512  0.15993  1.0000
  C   C20       1.0  0.61817  0.84488  0.65993  1.0000
  C   C21       1.0  0.08637  0.69918  0.82209  1.0000
  C   C22       1.0  0.41363  0.30082  0.32208  1.0000
  C   C23       1.0  0.91363  0.30082  0.17792  1.0000
  C   C24       1.0  0.58638  0.69918  0.67791  1.0000
  Cl  Cl1       1.0  0.15149  0.99484  0.58800  1.0000
  Cl  Cl2       1.0  0.34851  0.00516  0.08800  1.0000
  Cl  Cl3       1.0  0.84850  0.00516  0.41200  1.0000
  Cl  Cl4       1.0  0.65149  0.99484  0.91200  1.0000
  Cl  Cl5       1.0  0.06243  0.58856  0.90994  1.0000
  Cl  Cl6       1.0  0.43758  0.41144  0.40994  1.0000
  Cl  Cl7       1.0  0.93759  0.41144  0.09006  1.0000
  Cl  Cl8       1.0  0.56243  0.58856  0.59006  1.0000
  O   O1        1.0  0.03491  0.51630  0.72168  1.0000
  O   O2        1.0  0.46509  0.48371  0.22168  1.0000
  O   O3        1.0  0.96509  0.48370  0.27832  1.0000
  O   O4        1.0  0.53491  0.51630  0.77831  1.0000
  O   O5        1.0  0.08576  0.68919  0.58513  1.0000
  O   O6        1.0  0.41423  0.31081  0.08513  1.0000
  O   O7        1.0  0.91422  0.31081  0.41487  1.0000
  O   O8        1.0  0.58579  0.68919  0.91487  1.0000
  O   O9        1.0  0.19310  0.07062  0.77887  1.0000
  O   O10       1.0  0.30690  0.92938  0.27887  1.0000
  O   O11       1.0  0.80690  0.92938  0.22113  1.0000
  O   O12       1.0  0.69310  0.07063  0.72113  1.0000
  O   O13       1.0  0.11842  0.89274  0.91536  1.0000
  O   O14       1.0  0.38158  0.10726  0.41536  1.0000
  O   O15       1.0  0.88159  0.10726  0.08465  1.0000
  O   O16       1.0  0.61842  0.89274  0.58464  1.0000
  O   O17       1.0  0.53568  0.36607  0.90956  1.0000
  O   O18       1.0  0.96432  0.63393  0.40957  1.0000
  O   O19       1.0  0.46432  0.63393  0.09043  1.0000
  O   O20       1.0  0.03568  0.36607  0.59043  1.0000
  O   O21       1.0  0.85629  0.28243  0.82842  1.0000
  O   O22       1.0  0.64371  0.71757  0.32842  1.0000
  O   O23       1.0  0.14371  0.71757  0.17158  1.0000
  O   O24       1.0  0.35629  0.28243  0.67158  1.0000
