data_image0
_chemical_formula_structural       Rb4H20C24Cl8O24
_chemical_formula_sum              "Rb4 H20 C24 Cl8 O24"
_cell_length_a       7.39011
_cell_length_b       9.07671
_cell_length_c       14.9195
_cell_angle_alpha    95.3811
_cell_angle_beta     89.9925
_cell_angle_gamma    89.9988

_space_group_name_H-M_alt    "P 1"
_space_group_IT_number       1

loop_
  _space_group_symop_operation_xyz
  'x, y, z'

loop_
  _atom_site_type_symbol
  _atom_site_label
  _atom_site_symmetry_multiplicity
  _atom_site_fract_x
  _atom_site_fract_y
  _atom_site_fract_z
  _atom_site_occupancy
  Rb  Rb1       1.0  0.05989  0.48020  0.65840  1.0000
  Rb  Rb2       1.0  0.55992  0.01978  0.84159  1.0000
  Rb  Rb3       1.0  0.94010  0.51978  0.34160  1.0000
  Rb  Rb4       1.0  0.44010  0.98021  0.15841  1.0000
  H   H1        1.0  0.53468  0.44446  0.65847  1.0000
  H   H2        1.0  0.03471  0.05552  0.84152  1.0000
  H   H3        1.0  0.46530  0.55554  0.34153  1.0000
  H   H4        1.0  0.96531  0.94447  0.15848  1.0000
  H   H5        1.0  0.45396  0.38627  0.76167  1.0000
  H   H6        1.0  0.95396  0.11372  0.73832  1.0000
  H   H7        1.0  0.54604  0.61373  0.23833  1.0000
  H   H8        1.0  0.04604  0.88627  0.26168  1.0000
  H   H9        1.0  0.71956  0.43442  0.56020  1.0000
  H   H10       1.0  0.21955  0.06558  0.93978  1.0000
  H   H11       1.0  0.28043  0.56559  0.43980  1.0000
  H   H12       1.0  0.78047  0.93441  0.06021  1.0000
  H   H13       1.0  0.65590  0.60203  0.57316  1.0000
  H   H14       1.0  0.15592  0.89797  0.92683  1.0000
  H   H15       1.0  0.34409  0.39797  0.42684  1.0000
  H   H16       1.0  0.84411  0.10202  0.07316  1.0000
  H   H17       1.0  0.56741  0.72997  0.33510  1.0000
  H   H18       1.0  0.06739  0.77003  0.16490  1.0000
  H   H19       1.0  0.43256  0.27003  0.66490  1.0000
  H   H20       1.0  0.93264  0.22997  0.83510  1.0000
  C   C1        1.0  0.70686  0.10162  0.42343  1.0000
  C   C2        1.0  0.20683  0.39837  0.07656  1.0000
  C   C3        1.0  0.29310  0.89839  0.57657  1.0000
  C   C4        1.0  0.79321  0.60162  0.92344  1.0000
  C   C5        1.0  0.80411  0.17528  0.49587  1.0000
  C   C6        1.0  0.30412  0.32473  0.00413  1.0000
  C   C7        1.0  0.19586  0.82472  0.50414  1.0000
  C   C8        1.0  0.69591  0.67528  0.99587  1.0000
  C   C9        1.0  0.66373  0.95085  0.41703  1.0000
  C   C10       1.0  0.16370  0.54916  0.08297  1.0000
  C   C11       1.0  0.33623  0.04918  0.58297  1.0000
  C   C12       1.0  0.83633  0.45084  0.91703  1.0000
  C   C13       1.0  0.80731  0.93717  0.56978  1.0000
  C   C14       1.0  0.30741  0.56285  0.93023  1.0000
  C   C15       1.0  0.19263  0.06284  0.43022  1.0000
  C   C16       1.0  0.69261  0.43716  0.06977  1.0000
  C   C17       1.0  0.71449  0.86195  0.49589  1.0000
  C   C18       1.0  0.21453  0.63807  0.00411  1.0000
  C   C19       1.0  0.28546  0.13806  0.50411  1.0000
  C   C20       1.0  0.78550  0.36194  0.99589  1.0000
  C   C21       1.0  0.85590  0.08716  0.57491  1.0000
  C   C22       1.0  0.35597  0.41285  0.92510  1.0000
  C   C23       1.0  0.14406  0.91285  0.42510  1.0000
  C   C24       1.0  0.64406  0.58715  0.07491  1.0000
  Cl  Cl1       1.0  0.85557  0.83915  0.66045  1.0000
  Cl  Cl2       1.0  0.35576  0.66087  0.83956  1.0000
  Cl  Cl3       1.0  0.14438  0.16085  0.33955  1.0000
  Cl  Cl4       1.0  0.64426  0.33913  0.16043  1.0000
  Cl  Cl5       1.0  0.64154  0.20496  0.33777  1.0000
  Cl  Cl6       1.0  0.14142  0.29503  0.16221  1.0000
  Cl  Cl7       1.0  0.35843  0.79506  0.66223  1.0000
  Cl  Cl8       1.0  0.85861  0.70497  0.83779  1.0000
  O   O1        1.0  0.93912  0.15738  0.64020  1.0000
  O   O2        1.0  0.43921  0.34263  0.85979  1.0000
  O   O3        1.0  0.06084  0.84262  0.35980  1.0000
  O   O4        1.0  0.56082  0.65738  0.14021  1.0000
  O   O5        1.0  0.84808  0.31028  0.49988  1.0000
  O   O6        1.0  0.34809  0.18973  0.00011  1.0000
  O   O7        1.0  0.15190  0.68972  0.50013  1.0000
  O   O8        1.0  0.65193  0.81028  0.99989  1.0000
  O   O9        1.0  0.58043  0.88507  0.34995  1.0000
  O   O10       1.0  0.08036  0.61494  0.15004  1.0000
  O   O11       1.0  0.41954  0.11494  0.65004  1.0000
  O   O12       1.0  0.91968  0.38507  0.84997  1.0000
  O   O13       1.0  0.66923  0.72777  0.49000  1.0000
  O   O14       1.0  0.16927  0.77224  0.01000  1.0000
  O   O15       1.0  0.33074  0.27223  0.50999  1.0000
  O   O16       1.0  0.83075  0.22776  0.99000  1.0000
  O   O17       1.0  0.67108  0.51162  0.60569  1.0000
  O   O18       1.0  0.17111  0.98838  0.89430  1.0000
  O   O19       1.0  0.32890  0.48838  0.39431  1.0000
  O   O20       1.0  0.82892  0.01162  0.10569  1.0000
  O   O21       1.0  0.43911  0.38372  0.69284  1.0000
  O   O22       1.0  0.93915  0.11627  0.80716  1.0000
  O   O23       1.0  0.56087  0.61628  0.30716  1.0000
  O   O24       1.0  0.06087  0.88372  0.19285  1.0000
