data_image0
_chemical_formula_structural       Li4H28C32Cl8O20
_chemical_formula_sum              "Li4 H28 C32 Cl8 O20"
_cell_length_a       4.91835
_cell_length_b       13.6436
_cell_length_c       14.7659
_cell_angle_alpha    89.9997
_cell_angle_beta     90
_cell_angle_gamma    90

_space_group_name_H-M_alt    "P 1"
_space_group_IT_number       1

loop_
  _space_group_symop_operation_xyz
  'x, y, z'

loop_
  _atom_site_type_symbol
  _atom_site_label
  _atom_site_symmetry_multiplicity
  _atom_site_fract_x
  _atom_site_fract_y
  _atom_site_fract_z
  _atom_site_occupancy
  Li  Li1       1.0  0.25496  0.56435  0.65942  1.0000
  Li  Li2       1.0  0.74504  0.43564  0.15942  1.0000
  Li  Li3       1.0  0.75496  0.93564  0.15942  1.0000
  Li  Li4       1.0  0.24504  0.06435  0.65942  1.0000
  H   H1        1.0  0.18894  0.77813  0.71013  1.0000
  H   H2        1.0  0.81106  0.22187  0.21013  1.0000
  H   H3        1.0  0.68894  0.72187  0.21012  1.0000
  H   H4        1.0  0.31106  0.27813  0.71013  1.0000
  H   H5        1.0  0.15702  0.77714  0.59015  1.0000
  H   H6        1.0  0.84298  0.22286  0.09015  1.0000
  H   H7        1.0  0.65702  0.72286  0.09015  1.0000
  H   H8        1.0  0.34298  0.27715  0.59015  1.0000
  H   H9        1.0  0.69566  0.82899  0.72414  1.0000
  H   H10       1.0  0.30434  0.17101  0.22414  1.0000
  H   H11       1.0  0.19566  0.67101  0.22414  1.0000
  H   H12       1.0  0.80434  0.32899  0.72414  1.0000
  H   H13       1.0  0.88199  0.91404  0.65859  1.0000
  H   H14       1.0  0.11801  0.08597  0.15859  1.0000
  H   H15       1.0  0.38199  0.58597  0.15859  1.0000
  H   H16       1.0  0.61801  0.41403  0.65859  1.0000
  H   H17       1.0  0.66568  0.82974  0.60355  1.0000
  H   H18       1.0  0.33432  0.17026  0.10355  1.0000
  H   H19       1.0  0.16568  0.67026  0.10355  1.0000
  H   H20       1.0  0.83432  0.32974  0.60355  1.0000
  H   H21       1.0  0.26245  0.36200  0.08368  1.0000
  H   H22       1.0  0.73755  0.63800  0.58367  1.0000
  H   H23       1.0  0.76245  0.13800  0.58367  1.0000
  H   H24       1.0  0.23755  0.86200  0.08368  1.0000
  H   H25       1.0  0.82696  0.65478  0.70693  1.0000
  H   H26       1.0  0.17304  0.34522  0.20694  1.0000
  H   H27       1.0  0.32696  0.84522  0.20694  1.0000
  H   H28       1.0  0.67305  0.15478  0.70693  1.0000
  C   C1        1.0  0.28436  0.42475  0.91307  1.0000
  C   C2        1.0  0.71565  0.57525  0.41307  1.0000
  C   C3        1.0  0.78435  0.07525  0.41307  1.0000
  C   C4        1.0  0.21564  0.92475  0.91307  1.0000
  C   C5        1.0  0.53414  0.56398  0.82956  1.0000
  C   C6        1.0  0.46586  0.43602  0.32956  1.0000
  C   C7        1.0  0.03414  0.93602  0.32956  1.0000
  C   C8        1.0  0.96586  0.06398  0.82956  1.0000
  C   C9        1.0  0.04505  0.76822  0.65389  1.0000
  C   C10       1.0  0.95495  0.23178  0.15389  1.0000
  C   C11       1.0  0.54505  0.73178  0.15389  1.0000
  C   C12       1.0  0.45495  0.26822  0.65389  1.0000
  C   C13       1.0  0.45046  0.44135  0.98566  1.0000
  C   C14       1.0  0.54956  0.55865  0.48566  1.0000
  C   C15       1.0  0.95044  0.05865  0.48566  1.0000
  C   C16       1.0  0.04955  0.94135  0.98566  1.0000
  C   C17       1.0  0.80765  0.83828  0.66040  1.0000
  C   C18       1.0  0.19235  0.16172  0.16040  1.0000
  C   C19       1.0  0.30764  0.66172  0.16040  1.0000
  C   C20       1.0  0.69235  0.33828  0.66040  1.0000
  C   C21       1.0  0.67175  0.51881  0.98414  1.0000
  C   C22       1.0  0.32825  0.48119  0.48414  1.0000
  C   C23       1.0  0.17175  0.98119  0.48414  1.0000
  C   C24       1.0  0.82825  0.01881  0.98414  1.0000
  C   C25       1.0  0.31380  0.48376  0.83264  1.0000
  C   C26       1.0  0.68620  0.51623  0.33264  1.0000
  C   C27       1.0  0.81380  0.01623  0.33264  1.0000
  C   C28       1.0  0.18620  0.98376  0.83264  1.0000
  C   C29       1.0  0.69871  0.57764  0.90548  1.0000
  C   C30       1.0  0.30130  0.42236  0.40548  1.0000
  C   C31       1.0  0.19870  0.92236  0.40548  1.0000
  C   C32       1.0  0.80130  0.07764  0.90548  1.0000
  Cl  Cl1       1.0  0.94773  0.66692  0.90419  1.0000
  Cl  Cl2       1.0  0.05226  0.33307  0.40419  1.0000
  Cl  Cl3       1.0  0.44774  0.83307  0.40419  1.0000
  Cl  Cl4       1.0  0.55226  0.16693  0.90419  1.0000
  Cl  Cl5       1.0  0.04219  0.33358  0.91419  1.0000
  Cl  Cl6       1.0  0.95782  0.66642  0.41419  1.0000
  Cl  Cl7       1.0  0.54218  0.16642  0.41419  1.0000
  Cl  Cl8       1.0  0.45781  0.83358  0.91419  1.0000
  O   O1        1.0  0.17168  0.47272  0.76383  1.0000
  O   O2        1.0  0.82832  0.52728  0.26383  1.0000
  O   O3        1.0  0.67167  0.02728  0.26383  1.0000
  O   O4        1.0  0.32832  0.97272  0.76383  1.0000
  O   O5        1.0  0.44485  0.39395  0.06369  1.0000
  O   O6        1.0  0.55516  0.60605  0.56368  1.0000
  O   O7        1.0  0.94484  0.10606  0.56368  1.0000
  O   O8        1.0  0.05516  0.89394  0.06369  1.0000
  O   O9        1.0  0.81594  0.52590  0.05403  1.0000
  O   O10       1.0  0.18405  0.47411  0.55403  1.0000
  O   O11       1.0  0.31595  0.97411  0.55403  1.0000
  O   O12       1.0  0.68406  0.02590  0.05403  1.0000
  O   O13       1.0  0.54647  0.61097  0.75534  1.0000
  O   O14       1.0  0.45352  0.38902  0.25534  1.0000
  O   O15       1.0  0.04647  0.88903  0.25534  1.0000
  O   O16       1.0  0.95353  0.11097  0.75534  1.0000
  O   O17       1.0  0.95577  0.66579  0.65455  1.0000
  O   O18       1.0  0.04423  0.33421  0.15456  1.0000
  O   O19       1.0  0.45577  0.83421  0.15456  1.0000
  O   O20       1.0  0.54423  0.16579  0.65455  1.0000
