data_image0
_chemical_formula_structural       Cd4H20C6Se4N4
_chemical_formula_sum              "Cd4 H20 C6 Se4 N4"
_cell_length_a       6.73911
_cell_length_b       6.77557
_cell_length_c       10.9369
_cell_angle_alpha    108.053
_cell_angle_beta     89.9999
_cell_angle_gamma    90.001

_space_group_name_H-M_alt    "P 1"
_space_group_IT_number       1

loop_
  _space_group_symop_operation_xyz
  'x, y, z'

loop_
  _atom_site_type_symbol
  _atom_site_label
  _atom_site_symmetry_multiplicity
  _atom_site_fract_x
  _atom_site_fract_y
  _atom_site_fract_z
  _atom_site_occupancy
  Cd  Cd1       1.0  0.55563  0.64609  0.57909  1.0000
  Cd  Cd2       1.0  0.55574  0.06685  0.42073  1.0000
  Cd  Cd3       1.0  0.05574  0.93314  0.57927  1.0000
  Cd  Cd4       1.0  0.05563  0.35391  0.42091  1.0000
  H   H1        1.0  0.42265  0.42656  0.74884  1.0000
  H   H2        1.0  0.42260  0.67772  0.25087  1.0000
  H   H3        1.0  0.92259  0.32228  0.74912  1.0000
  H   H4        1.0  0.92265  0.57346  0.25116  1.0000
  H   H5        1.0  0.25486  0.60409  0.74710  1.0000
  H   H6        1.0  0.25456  0.85696  0.25291  1.0000
  H   H7        1.0  0.75457  0.14305  0.74707  1.0000
  H   H8        1.0  0.75483  0.39593  0.25292  1.0000
  H   H9        1.0  0.46398  0.87969  0.87754  1.0000
  H   H10       1.0  0.46303  0.00251  0.12237  1.0000
  H   H11       1.0  0.96298  0.99750  0.87762  1.0000
  H   H12       1.0  0.96392  0.12029  0.12247  1.0000
  H   H13       1.0  0.64266  0.69160  0.88116  1.0000
  H   H14       1.0  0.64226  0.81126  0.11877  1.0000
  H   H15       1.0  0.14222  0.18875  0.88124  1.0000
  H   H16       1.0  0.14262  0.30839  0.11882  1.0000
  H   H17       1.0  0.39935  0.53209  0.00004  1.0000
  H   H18       1.0  0.89927  0.46790  0.99997  1.0000
  H   H19       1.0  0.22443  0.72736  0.99972  1.0000
  H   H20       1.0  0.72437  0.27261  0.00028  1.0000
  C   C1        1.0  0.48154  0.71868  0.87914  1.0000
  C   C2        1.0  0.48103  0.83992  0.12074  1.0000
  C   C3        1.0  0.98100  0.16009  0.87926  1.0000
  C   C4        1.0  0.98149  0.28132  0.12085  1.0000
  C   C5        1.0  0.38469  0.69420  0.99987  1.0000
  C   C6        1.0  0.88465  0.30578  0.00009  1.0000
  Se  Se1       1.0  0.93054  0.60315  0.64206  1.0000
  Se  Se2       1.0  0.93069  0.96096  0.35803  1.0000
  Se  Se3       1.0  0.43068  0.03903  0.64197  1.0000
  Se  Se4       1.0  0.43054  0.39685  0.35794  1.0000
  N   N1        1.0  0.40438  0.58103  0.75702  1.0000
  N   N2        1.0  0.40411  0.82412  0.24292  1.0000
  N   N3        1.0  0.90409  0.17591  0.75711  1.0000
  N   N4        1.0  0.90435  0.41900  0.24302  1.0000
