data_image0
_chemical_formula_structural       H20Pb4C8N36O8
_chemical_formula_sum              "H20 Pb4 C8 N36 O8"
_cell_length_a       6.62184
_cell_length_b       10.65
_cell_length_c       11.9107
_cell_angle_alpha    90.0102
_cell_angle_beta     89.9822
_cell_angle_gamma    105.111

_space_group_name_H-M_alt    "P 1"
_space_group_IT_number       1

loop_
  _space_group_symop_operation_xyz
  'x, y, z'

loop_
  _atom_site_type_symbol
  _atom_site_label
  _atom_site_symmetry_multiplicity
  _atom_site_fract_x
  _atom_site_fract_y
  _atom_site_fract_z
  _atom_site_occupancy
  H   H1        1.0  0.29433  0.57342  0.13808  1.0000
  H   H2        1.0  0.20566  0.92666  0.63807  1.0000
  H   H3        1.0  0.70561  0.42660  0.86190  1.0000
  H   H4        1.0  0.79432  0.07335  0.36192  1.0000
  H   H5        1.0  0.26425  0.13047  0.09742  1.0000
  H   H6        1.0  0.23563  0.36953  0.59746  1.0000
  H   H7        1.0  0.73579  0.86951  0.90256  1.0000
  H   H8        1.0  0.76424  0.63052  0.40256  1.0000
  H   H9        1.0  0.14161  0.03553  0.18704  1.0000
  H   H10       1.0  0.35825  0.46446  0.68708  1.0000
  H   H11       1.0  0.85843  0.96450  0.81298  1.0000
  H   H12       1.0  0.64154  0.53553  0.31299  1.0000
  H   H13       1.0  0.48463  0.22972  0.21516  1.0000
  H   H14       1.0  0.01536  0.27029  0.71514  1.0000
  H   H15       1.0  0.51541  0.77028  0.78482  1.0000
  H   H16       1.0  0.98473  0.72968  0.28485  1.0000
  H   H17       1.0  0.55227  0.32521  0.10707  1.0000
  H   H18       1.0  0.94770  0.17483  0.60704  1.0000
  H   H19       1.0  0.44775  0.67475  0.89289  1.0000
  H   H20       1.0  0.05229  0.82521  0.39293  1.0000
  Pb  Pb1       1.0  0.80725  0.13403  0.04532  1.0000
  Pb  Pb2       1.0  0.69263  0.36600  0.54528  1.0000
  Pb  Pb3       1.0  0.19291  0.86584  0.95470  1.0000
  Pb  Pb4       1.0  0.30717  0.63411  0.45479  1.0000
  C   C1        1.0  0.11244  0.40424  0.20421  1.0000
  C   C2        1.0  0.38757  0.09581  0.70419  1.0000
  C   C3        1.0  0.88755  0.59576  0.79580  1.0000
  C   C4        1.0  0.61245  0.90418  0.29581  1.0000
  C   C5        1.0  0.20400  0.44356  0.00664  1.0000
  C   C6        1.0  0.29603  0.05648  0.50663  1.0000
  C   C7        1.0  0.79595  0.55643  0.99336  1.0000
  C   C8        1.0  0.70403  0.94351  0.49336  1.0000
  N   N1        1.0  0.98072  0.28431  0.19899  1.0000
  N   N2        1.0  0.51916  0.21578  0.69899  1.0000
  N   N3        1.0  0.01936  0.71567  0.80102  1.0000
  N   N4        1.0  0.48060  0.78430  0.30102  1.0000
  N   N5        1.0  0.92390  0.25119  0.30673  1.0000
  N   N6        1.0  0.57604  0.24886  0.80672  1.0000
  N   N7        1.0  0.07613  0.74882  0.69328  1.0000
  N   N8        1.0  0.42383  0.75119  0.19328  1.0000
  N   N9        1.0  0.01669  0.34654  0.37304  1.0000
  N   N10       1.0  0.48341  0.15344  0.87300  1.0000
  N   N11       1.0  0.98319  0.65350  0.62697  1.0000
  N   N12       1.0  0.51677  0.84651  0.12698  1.0000
  N   N13       1.0  0.13717  0.44470  0.31178  1.0000
  N   N14       1.0  0.36300  0.05528  0.81174  1.0000
  N   N15       1.0  0.86272  0.55536  0.68822  1.0000
  N   N16       1.0  0.63729  0.94462  0.18824  1.0000
  N   N17       1.0  0.21054  0.47982  0.11719  1.0000
  N   N18       1.0  0.28948  0.02024  0.61717  1.0000
  N   N19       1.0  0.78943  0.52018  0.88281  1.0000
  N   N20       1.0  0.71056  0.97976  0.38282  1.0000
  N   N21       1.0  0.08929  0.33055  0.96279  1.0000
  N   N22       1.0  0.41080  0.16946  0.46277  1.0000
  N   N23       1.0  0.91070  0.66942  0.03721  1.0000
  N   N24       1.0  0.58945  0.83048  0.53721  1.0000
  N   N25       1.0  0.13135  0.33877  0.85147  1.0000
  N   N26       1.0  0.36874  0.16123  0.35145  1.0000
  N   N27       1.0  0.86864  0.66122  0.14854  1.0000
  N   N28       1.0  0.63147  0.83873  0.64853  1.0000
  N   N29       1.0  0.26436  0.45071  0.83012  1.0000
  N   N30       1.0  0.23569  0.04931  0.33013  1.0000
  N   N31       1.0  0.73557  0.54929  0.16987  1.0000
  N   N32       1.0  0.76436  0.95071  0.66986  1.0000
  N   N33       1.0  0.31423  0.51998  0.92558  1.0000
  N   N34       1.0  0.18579  0.98006  0.42560  1.0000
  N   N35       1.0  0.68568  0.48003  0.07441  1.0000
  N   N36       1.0  0.81418  0.01998  0.57440  1.0000
  O   O1        1.0  0.13537  0.05585  0.10494  1.0000
  O   O2        1.0  0.36452  0.44415  0.60497  1.0000
  O   O3        1.0  0.86470  0.94410  0.89506  1.0000
  O   O4        1.0  0.63532  0.55592  0.39509  1.0000
  O   O5        1.0  0.49851  0.23169  0.13188  1.0000
  O   O6        1.0  0.00149  0.26833  0.63187  1.0000
  O   O7        1.0  0.50152  0.76827  0.86810  1.0000
  O   O8        1.0  0.99852  0.73169  0.36813  1.0000
