data_image0
_chemical_formula_structural       Sn4H40C40O16
_chemical_formula_sum              "Sn4 H40 C40 O16"
_cell_length_a       9.24058
_cell_length_b       10.5259
_cell_length_c       11.3149
_cell_angle_alpha    90.0001
_cell_angle_beta     97.2675
_cell_angle_gamma    89.9995

_space_group_name_H-M_alt    "P 1"
_space_group_IT_number       1

loop_
  _space_group_symop_operation_xyz
  'x, y, z'

loop_
  _atom_site_type_symbol
  _atom_site_label
  _atom_site_symmetry_multiplicity
  _atom_site_fract_x
  _atom_site_fract_y
  _atom_site_fract_z
  _atom_site_occupancy
  Sn  Sn1       1.0  0.13608  0.17565  0.04094  1.0000
  Sn  Sn2       1.0  0.13607  0.32435  0.54095  1.0000
  Sn  Sn3       1.0  0.86393  0.82435  0.95905  1.0000
  Sn  Sn4       1.0  0.86393  0.67565  0.45905  1.0000
  H   H1        1.0  0.40059  0.55177  0.01302  1.0000
  H   H2        1.0  0.40058  0.94825  0.51301  1.0000
  H   H3        1.0  0.59941  0.44823  0.98698  1.0000
  H   H4        1.0  0.59943  0.05174  0.48700  1.0000
  H   H5        1.0  0.32688  0.73258  0.40651  1.0000
  H   H6        1.0  0.32691  0.76742  0.90649  1.0000
  H   H7        1.0  0.67311  0.26743  0.59349  1.0000
  H   H8        1.0  0.67308  0.23258  0.09351  1.0000
  H   H9        1.0  0.46780  0.85400  0.27108  1.0000
  H   H10       1.0  0.46783  0.64601  0.77105  1.0000
  H   H11       1.0  0.53218  0.14600  0.72890  1.0000
  H   H12       1.0  0.53216  0.35399  0.22895  1.0000
  H   H13       1.0  0.51178  0.76163  0.07673  1.0000
  H   H14       1.0  0.51178  0.73839  0.57670  1.0000
  H   H15       1.0  0.48821  0.23838  0.92327  1.0000
  H   H16       1.0  0.48823  0.26160  0.42331  1.0000
  H   H17       1.0  0.01980  0.31473  0.85594  1.0000
  H   H18       1.0  0.01981  0.18527  0.35594  1.0000
  H   H19       1.0  0.98021  0.68527  0.14406  1.0000
  H   H20       1.0  0.98021  0.81473  0.64406  1.0000
  H   H21       1.0  0.90927  0.32513  0.97546  1.0000
  H   H22       1.0  0.90927  0.17487  0.47546  1.0000
  H   H23       1.0  0.09074  0.67487  0.02453  1.0000
  H   H24       1.0  0.09074  0.82513  0.52453  1.0000
  H   H25       1.0  0.89519  0.18876  0.87919  1.0000
  H   H26       1.0  0.89517  0.31123  0.37918  1.0000
  H   H27       1.0  0.10481  0.81125  0.12080  1.0000
  H   H28       1.0  0.10484  0.68877  0.62081  1.0000
  H   H29       1.0  0.33721  0.04522  0.17985  1.0000
  H   H30       1.0  0.33721  0.45477  0.67985  1.0000
  H   H31       1.0  0.66278  0.95478  0.82014  1.0000
  H   H32       1.0  0.66279  0.54523  0.32014  1.0000
  H   H33       1.0  0.15897  0.98888  0.20545  1.0000
  H   H34       1.0  0.15897  0.51114  0.70546  1.0000
  H   H35       1.0  0.84104  0.01112  0.79455  1.0000
  H   H36       1.0  0.84103  0.48886  0.29453  1.0000
  H   H37       1.0  0.23020  0.13512  0.27183  1.0000
  H   H38       1.0  0.23019  0.36488  0.77183  1.0000
  H   H39       1.0  0.76980  0.86488  0.72817  1.0000
  H   H40       1.0  0.76981  0.63512  0.22817  1.0000
  C   C1        1.0  0.21665  0.49926  0.37684  1.0000
  C   C2        1.0  0.21666  0.00072  0.87685  1.0000
  C   C3        1.0  0.78336  0.50073  0.62316  1.0000
  C   C4        1.0  0.78334  0.99928  0.12316  1.0000
  C   C5        1.0  0.28791  0.57354  0.28754  1.0000
  C   C6        1.0  0.28792  0.92646  0.78754  1.0000
  C   C7        1.0  0.71209  0.42647  0.71245  1.0000
  C   C8        1.0  0.71208  0.07354  0.21247  1.0000
  C   C9        1.0  0.30716  0.52296  0.17533  1.0000
  C   C10       1.0  0.30714  0.97705  0.67532  1.0000
  C   C11       1.0  0.69284  0.47705  0.82467  1.0000
  C   C12       1.0  0.69286  0.02295  0.32469  1.0000
  C   C13       1.0  0.38741  0.59166  0.09987  1.0000
  C   C14       1.0  0.38740  0.90836  0.59986  1.0000
  C   C15       1.0  0.61260  0.40833  0.90013  1.0000
  C   C16       1.0  0.61259  0.09164  0.40015  1.0000
  C   C17       1.0  0.23420  0.40217  0.13370  1.0000
  C   C18       1.0  0.23417  0.09784  0.63370  1.0000
  C   C19       1.0  0.76580  0.59784  0.86631  1.0000
  C   C20       1.0  0.76582  0.90216  0.36630  1.0000
  C   C21       1.0  0.34366  0.69369  0.32007  1.0000
  C   C22       1.0  0.34368  0.80631  0.82006  1.0000
  C   C23       1.0  0.65633  0.30632  0.67992  1.0000
  C   C24       1.0  0.65632  0.19369  0.17995  1.0000
  C   C25       1.0  0.42262  0.76146  0.24377  1.0000
  C   C26       1.0  0.42265  0.73855  0.74375  1.0000
  C   C27       1.0  0.57736  0.23854  0.75622  1.0000
  C   C28       1.0  0.57734  0.26145  0.25626  1.0000
  C   C29       1.0  0.44641  0.70992  0.13423  1.0000
  C   C30       1.0  0.44643  0.79010  0.63421  1.0000
  C   C31       1.0  0.55359  0.29008  0.86577  1.0000
  C   C32       1.0  0.55357  0.20989  0.36579  1.0000
  C   C33       1.0  0.96823  0.26120  0.92223  1.0000
  C   C34       1.0  0.96823  0.23880  0.42223  1.0000
  C   C35       1.0  0.03178  0.73880  0.07777  1.0000
  C   C36       1.0  0.03178  0.76119  0.57776  1.0000
  C   C37       1.0  0.22635  0.07233  0.19439  1.0000
  C   C38       1.0  0.22634  0.42768  0.69439  1.0000
  C   C39       1.0  0.77365  0.92767  0.80561  1.0000
  C   C40       1.0  0.77366  0.57232  0.30561  1.0000
  O   O1        1.0  0.29086  0.33568  0.05418  1.0000
  O   O2        1.0  0.29085  0.16433  0.55419  1.0000
  O   O3        1.0  0.70915  0.66433  0.94583  1.0000
  O   O4        1.0  0.70915  0.83567  0.44582  1.0000
  O   O5        1.0  0.10637  0.54058  0.41965  1.0000
  O   O6        1.0  0.10639  0.95941  0.91966  1.0000
  O   O7        1.0  0.89364  0.45941  0.58034  1.0000
  O   O8        1.0  0.89362  0.04060  0.08034  1.0000
  O   O9        1.0  0.11914  0.36591  0.17336  1.0000
  O   O10       1.0  0.11912  0.13411  0.67337  1.0000
  O   O11       1.0  0.88087  0.63409  0.82665  1.0000
  O   O12       1.0  0.88087  0.86589  0.32664  1.0000
  O   O13       1.0  0.27896  0.39390  0.41425  1.0000
  O   O14       1.0  0.27896  0.10609  0.91425  1.0000
  O   O15       1.0  0.72106  0.60610  0.58575  1.0000
  O   O16       1.0  0.72104  0.89391  0.08576  1.0000
