data_image0
_chemical_formula_structural       Co2H24C28N8O8
_chemical_formula_sum              "Co2 H24 C28 N8 O8"
_cell_length_a       8.27798
_cell_length_b       9.92885
_cell_length_c       9.86347
_cell_angle_alpha    89.9999
_cell_angle_beta     104.008
_cell_angle_gamma    90.0003

_space_group_name_H-M_alt    "P 1"
_space_group_IT_number       1

loop_
  _space_group_symop_operation_xyz
  'x, y, z'

loop_
  _atom_site_type_symbol
  _atom_site_label
  _atom_site_symmetry_multiplicity
  _atom_site_fract_x
  _atom_site_fract_y
  _atom_site_fract_z
  _atom_site_occupancy
  Co  Co1       1.0  0.24643  0.60055  0.13883  1.0000
  Co  Co2       1.0  0.74642  0.39945  0.63883  1.0000
  H   H1        1.0  0.11913  0.91069  0.07378  1.0000
  H   H2        1.0  0.61913  0.08931  0.57378  1.0000
  H   H3        1.0  0.94015  0.97571  0.82963  1.0000
  H   H4        1.0  0.44015  0.02429  0.32963  1.0000
  H   H5        1.0  0.61739  0.71723  0.23685  1.0000
  H   H6        1.0  0.11739  0.28276  0.73685  1.0000
  H   H7        1.0  0.04404  0.55484  0.83304  1.0000
  H   H8        1.0  0.54404  0.44516  0.33303  1.0000
  H   H9        1.0  0.88565  0.76818  0.66876  1.0000
  H   H10       1.0  0.38565  0.23181  0.16876  1.0000
  H   H11       1.0  0.40910  0.41615  0.94496  1.0000
  H   H12       1.0  0.90910  0.58385  0.44496  1.0000
  H   H13       1.0  0.86419  0.61863  0.11265  1.0000
  H   H14       1.0  0.36419  0.38137  0.61266  1.0000
  H   H15       1.0  0.71607  0.43643  0.94104  1.0000
  H   H16       1.0  0.21607  0.56357  0.44104  1.0000
  H   H17       1.0  0.06571  0.26583  0.34405  1.0000
  H   H18       1.0  0.56572  0.73417  0.84405  1.0000
  H   H19       1.0  0.70480  0.94906  0.21157  1.0000
  H   H20       1.0  0.20480  0.05094  0.71157  1.0000
  H   H21       1.0  0.89401  0.07852  0.40320  1.0000
  H   H22       1.0  0.39401  0.92148  0.90320  1.0000
  H   H23       1.0  0.68776  0.00862  0.96378  1.0000
  H   H24       1.0  0.18776  0.99138  0.46378  1.0000
  C   C1        1.0  0.07653  0.84234  0.98684  1.0000
  C   C2        1.0  0.57653  0.15766  0.48683  1.0000
  C   C3        1.0  0.61113  0.64262  0.15565  1.0000
  C   C4        1.0  0.11113  0.35738  0.65565  1.0000
  C   C5        1.0  0.03503  0.66048  0.85750  1.0000
  C   C6        1.0  0.53502  0.33952  0.35750  1.0000
  C   C7        1.0  0.95686  0.76503  0.77641  1.0000
  C   C8        1.0  0.45685  0.23497  0.27640  1.0000
  C   C9        1.0  0.49895  0.48494  0.00717  1.0000
  C   C10       1.0  0.99895  0.51506  0.50718  1.0000
  C   C11       1.0  0.73358  0.59399  0.09640  1.0000
  C   C12       1.0  0.23358  0.40601  0.59641  1.0000
  C   C13       1.0  0.97317  0.24310  0.12207  1.0000
  C   C14       1.0  0.47317  0.75690  0.62206  1.0000
  C   C15       1.0  0.98210  0.20890  0.26156  1.0000
  C   C16       1.0  0.48210  0.79110  0.76156  1.0000
  C   C17       1.0  0.08438  0.35139  0.08888  1.0000
  C   C18       1.0  0.58438  0.64861  0.58889  1.0000
  C   C19       1.0  0.78104  0.03079  0.18714  1.0000
  C   C20       1.0  0.28104  0.96922  0.68714  1.0000
  C   C21       1.0  0.88695  0.10321  0.29417  1.0000
  C   C22       1.0  0.38695  0.89679  0.79417  1.0000
  C   C23       1.0  0.86565  0.17039  0.01436  1.0000
  C   C24       1.0  0.36565  0.82962  0.51436  1.0000
  C   C25       1.0  0.77090  0.06420  0.04791  1.0000
  C   C26       1.0  0.27090  0.93580  0.54791  1.0000
  C   C27       1.0  0.84108  0.20779  0.86320  1.0000
  C   C28       1.0  0.34107  0.79221  0.36320  1.0000
  N   N1        1.0  0.98412  0.87801  0.85975  1.0000
  N   N2        1.0  0.48412  0.12199  0.35975  1.0000
  N   N3        1.0  0.46493  0.57325  0.09913  1.0000
  N   N4        1.0  0.96492  0.42675  0.59914  1.0000
  N   N5        1.0  0.10955  0.71015  0.98905  1.0000
  N   N6        1.0  0.60955  0.28985  0.48905  1.0000
  N   N7        1.0  0.66007  0.49506  0.00404  1.0000
  N   N8        1.0  0.16008  0.50494  0.50405  1.0000
  O   O1        1.0  0.14360  0.34147  0.98388  1.0000
  O   O2        1.0  0.64359  0.65853  0.48387  1.0000
  O   O3        1.0  0.11485  0.45042  0.17761  1.0000
  O   O4        1.0  0.61485  0.54958  0.67761  1.0000
  O   O5        1.0  0.86731  0.12465  0.77494  1.0000
  O   O6        1.0  0.36731  0.87536  0.27494  1.0000
  O   O7        1.0  0.78149  0.32717  0.82984  1.0000
  O   O8        1.0  0.28148  0.67283  0.32985  1.0000
