data_image0
_chemical_formula_structural       Mn2H18C24N16Cl2
_chemical_formula_sum              "Mn2 H18 C24 N16 Cl2"
_cell_length_a       7.93709
_cell_length_b       9.62604
_cell_length_c       9.73615
_cell_angle_alpha    72.9846
_cell_angle_beta     78.659
_cell_angle_gamma    81.0715

_space_group_name_H-M_alt    "P 1"
_space_group_IT_number       1

loop_
  _space_group_symop_operation_xyz
  'x, y, z'

loop_
  _atom_site_type_symbol
  _atom_site_label
  _atom_site_symmetry_multiplicity
  _atom_site_fract_x
  _atom_site_fract_y
  _atom_site_fract_z
  _atom_site_occupancy
  Mn  Mn1       1.0  0.15380  0.57266  0.54818  1.0000
  Mn  Mn2       1.0  0.84620  0.42734  0.45182  1.0000
  H   H1        1.0  0.85396  0.44240  0.81093  1.0000
  H   H2        1.0  0.14604  0.55760  0.18907  1.0000
  H   H3        1.0  0.70155  0.49848  0.04346  1.0000
  H   H4        1.0  0.29845  0.50152  0.95654  1.0000
  H   H5        1.0  0.75246  0.72695  0.09361  1.0000
  H   H6        1.0  0.24754  0.27305  0.90639  1.0000
  H   H7        1.0  0.94784  0.89704  0.90548  1.0000
  H   H8        1.0  0.05216  0.10296  0.09452  1.0000
  H   H9        1.0  0.13096  0.95260  0.67722  1.0000
  H   H10       1.0  0.86904  0.04740  0.32278  1.0000
  H   H11       1.0  0.24015  0.10379  0.51996  1.0000
  H   H12       1.0  0.75987  0.89620  0.48006  1.0000
  H   H13       1.0  0.42655  0.26094  0.32620  1.0000
  H   H14       1.0  0.57346  0.73905  0.67380  1.0000
  H   H15       1.0  0.56169  0.92316  0.10301  1.0000
  H   H16       1.0  0.43830  0.07685  0.89699  1.0000
  H   H17       1.0  0.36419  0.76555  0.29622  1.0000
  H   H18       1.0  0.63580  0.23445  0.70378  1.0000
  C   C1        1.0  0.87113  0.54170  0.83626  1.0000
  C   C2        1.0  0.12887  0.45830  0.16373  1.0000
  C   C3        1.0  0.78544  0.57398  0.96465  1.0000
  C   C4        1.0  0.21455  0.42602  0.03535  1.0000
  C   C5        1.0  0.81323  0.70199  0.99202  1.0000
  C   C6        1.0  0.18677  0.29801  0.00797  1.0000
  C   C7        1.0  0.92245  0.79544  0.88906  1.0000
  C   C8        1.0  0.07756  0.20456  0.11094  1.0000
  C   C9        1.0  0.00180  0.75604  0.76203  1.0000
  C   C10       1.0  0.99820  0.24396  0.23797  1.0000
  C   C11       1.0  0.11402  0.85263  0.65123  1.0000
  C   C12       1.0  0.88598  0.14736  0.34877  1.0000
  C   C13       1.0  0.29118  0.92013  0.42384  1.0000
  C   C14       1.0  0.70882  0.07987  0.57617  1.0000
  C   C15       1.0  0.30941  0.06149  0.43010  1.0000
  C   C16       1.0  0.69059  0.93851  0.56991  1.0000
  C   C17       1.0  0.41595  0.15137  0.32088  1.0000
  C   C18       1.0  0.58405  0.84863  0.67913  1.0000
  C   C19       1.0  0.50681  0.10033  0.20376  1.0000
  C   C20       1.0  0.49319  0.89967  0.79624  1.0000
  C   C21       1.0  0.49031  0.96130  0.19473  1.0000
  C   C22       1.0  0.50969  0.03870  0.80527  1.0000
  C   C23       1.0  0.38122  0.87308  0.30352  1.0000
  C   C24       1.0  0.61877  0.12692  0.69648  1.0000
  N   N1        1.0  0.97786  0.62972  0.73718  1.0000
  N   N2        1.0  0.02214  0.37028  0.26282  1.0000
  N   N3        1.0  0.18675  0.82162  0.53090  1.0000
  N   N4        1.0  0.81325  0.17838  0.46910  1.0000
  N   N5        1.0  0.04237  0.36513  0.59640  1.0000
  N   N6        1.0  0.95764  0.63487  0.40360  1.0000
  N   N7        1.0  0.06305  0.25214  0.68932  1.0000
  N   N8        1.0  0.93695  0.74787  0.31067  1.0000
  N   N9        1.0  0.08295  0.14205  0.77869  1.0000
  N   N10       1.0  0.91705  0.85796  0.22130  1.0000
  N   N11       1.0  0.34923  0.50274  0.68840  1.0000
  N   N12       1.0  0.65077  0.49727  0.31160  1.0000
  N   N13       1.0  0.50160  0.49018  0.65615  1.0000
  N   N14       1.0  0.49841  0.50982  0.34385  1.0000
  N   N15       1.0  0.65450  0.47671  0.62946  1.0000
  N   N16       1.0  0.34551  0.52329  0.37054  1.0000
  Cl  Cl1       1.0  0.63923  0.21125  0.06607  1.0000
  Cl  Cl2       1.0  0.36077  0.78876  0.93393  1.0000
