data_image0
_chemical_formula_structural       Mn2H24C26N16
_chemical_formula_sum              "Mn2 H24 C26 N16"
_cell_length_a       7.35663
_cell_length_b       10.0394
_cell_length_c       9.90437
_cell_angle_alpha    97.7792
_cell_angle_beta     95.0161
_cell_angle_gamma    102.503

_space_group_name_H-M_alt    "P 1"
_space_group_IT_number       1

loop_
  _space_group_symop_operation_xyz
  'x, y, z'

loop_
  _atom_site_type_symbol
  _atom_site_label
  _atom_site_symmetry_multiplicity
  _atom_site_fract_x
  _atom_site_fract_y
  _atom_site_fract_z
  _atom_site_occupancy
  Mn  Mn1       1.0  0.21161  0.61097  0.48727  1.0000
  Mn  Mn2       1.0  0.78842  0.38904  0.51271  1.0000
  H   H1        1.0  0.47242  0.75922  0.77029  1.0000
  H   H2        1.0  0.52758  0.24078  0.22971  1.0000
  H   H3        1.0  0.58849  0.99871  0.90376  1.0000
  H   H4        1.0  0.41150  0.00129  0.09623  1.0000
  H   H5        1.0  0.49444  0.19724  0.80665  1.0000
  H   H6        1.0  0.50555  0.80276  0.19335  1.0000
  H   H7        1.0  0.29145  0.14638  0.58053  1.0000
  H   H8        1.0  0.70854  0.85362  0.41948  1.0000
  H   H9        1.0  0.11633  0.98042  0.38782  1.0000
  H   H10       1.0  0.88366  0.01957  0.61219  1.0000
  H   H11       1.0  0.08356  0.94744  0.18033  1.0000
  H   H12       1.0  0.91644  0.05256  0.81967  1.0000
  H   H13       1.0  0.91011  0.87772  0.94509  1.0000
  H   H14       1.0  0.08988  0.12228  0.05492  1.0000
  H   H15       1.0  0.73849  0.63622  0.86440  1.0000
  H   H16       1.0  0.26150  0.36378  0.13560  1.0000
  H   H17       1.0  0.92784  0.52399  0.24710  1.0000
  H   H18       1.0  0.07216  0.47601  0.75290  1.0000
  H   H19       1.0  0.67090  0.39694  0.89269  1.0000
  H   H20       1.0  0.32909  0.60307  0.10731  1.0000
  H   H21       1.0  0.57643  0.39639  0.05187  1.0000
  H   H22       1.0  0.42356  0.60361  0.94813  1.0000
  H   H23       1.0  0.78869  0.34324  0.03384  1.0000
  H   H24       1.0  0.21130  0.65676  0.96616  1.0000
  C   C1        1.0  0.43477  0.84828  0.73337  1.0000
  C   C2        1.0  0.56523  0.15172  0.26664  1.0000
  C   C3        1.0  0.49775  0.98189  0.80710  1.0000
  C   C4        1.0  0.50224  0.01810  0.19290  1.0000
  C   C5        1.0  0.44577  0.09148  0.75361  1.0000
  C   C6        1.0  0.55422  0.90852  0.24640  1.0000
  C   C7        1.0  0.33232  0.06390  0.62820  1.0000
  C   C8        1.0  0.66767  0.93610  0.37180  1.0000
  C   C9        1.0  0.27459  0.92725  0.56071  1.0000
  C   C10       1.0  0.72541  0.07275  0.43929  1.0000
  C   C11       1.0  0.15863  0.89392  0.42850  1.0000
  C   C12       1.0  0.84137  0.10608  0.57150  1.0000
  C   C13       1.0  0.01262  0.73931  0.23039  1.0000
  C   C14       1.0  0.98738  0.26070  0.76961  1.0000
  C   C15       1.0  0.00828  0.84057  0.14514  1.0000
  C   C16       1.0  0.99172  0.15943  0.85487  1.0000
  C   C17       1.0  0.90997  0.80194  0.01415  1.0000
  C   C18       1.0  0.09003  0.19807  0.98586  1.0000
  C   C19       1.0  0.81290  0.66494  0.96802  1.0000
  C   C20       1.0  0.18710  0.33506  0.03198  1.0000
  C   C21       1.0  0.81473  0.56329  0.05179  1.0000
  C   C22       1.0  0.18527  0.43671  0.94821  1.0000
  C   C23       1.0  0.91923  0.60176  0.18158  1.0000
  C   C24       1.0  0.08077  0.39825  0.81842  1.0000
  C   C25       1.0  0.70741  0.41676  0.00447  1.0000
  C   C26       1.0  0.29259  0.58325  0.99553  1.0000
  N   N1        1.0  0.32627  0.82097  0.61288  1.0000
  N   N2        1.0  0.67373  0.17902  0.38712  1.0000
  N   N3        1.0  0.11279  0.76848  0.36316  1.0000
  N   N4        1.0  0.88722  0.23152  0.63684  1.0000
  N   N5        1.0  0.41356  0.60403  0.34822  1.0000
  N   N6        1.0  0.58644  0.39597  0.65179  1.0000
  N   N7        1.0  0.52414  0.53379  0.35608  1.0000
  N   N8        1.0  0.47587  0.46620  0.64393  1.0000
  N   N9        1.0  0.63360  0.46338  0.35943  1.0000
  N   N10       1.0  0.36641  0.53662  0.64056  1.0000
  N   N11       1.0  0.04714  0.40026  0.40809  1.0000
  N   N12       1.0  0.95286  0.59973  0.59191  1.0000
  N   N13       1.0  0.10352  0.29887  0.37076  1.0000
  N   N14       1.0  0.89648  0.70114  0.62924  1.0000
  N   N15       1.0  0.15471  0.19893  0.33461  1.0000
  N   N16       1.0  0.84530  0.80107  0.66538  1.0000
