data_image0
_chemical_formula_structural       Ag4H24C34O22
_chemical_formula_sum              "Ag4 H24 C34 O22"
_cell_length_a       8.54372
_cell_length_b       9.78125
_cell_length_c       11.4632
_cell_angle_alpha    67.1489
_cell_angle_beta     82.4587
_cell_angle_gamma    71.7753

_space_group_name_H-M_alt    "P 1"
_space_group_IT_number       1

loop_
  _space_group_symop_operation_xyz
  'x, y, z'

loop_
  _atom_site_type_symbol
  _atom_site_label
  _atom_site_symmetry_multiplicity
  _atom_site_fract_x
  _atom_site_fract_y
  _atom_site_fract_z
  _atom_site_occupancy
  Ag  Ag1       1.0  0.07611  0.11027  0.91775  1.0000
  Ag  Ag2       1.0  0.92389  0.88973  0.08225  1.0000
  Ag  Ag3       1.0  0.38835  0.94574  0.09017  1.0000
  Ag  Ag4       1.0  0.61165  0.05426  0.90983  1.0000
  H   H1        1.0  0.12622  0.30580  0.02736  1.0000
  H   H2        1.0  0.87379  0.69420  0.97264  1.0000
  H   H3        1.0  0.29125  0.59364  0.96347  1.0000
  H   H4        1.0  0.70875  0.40636  0.03653  1.0000
  H   H5        1.0  0.61482  0.78487  0.66624  1.0000
  H   H6        1.0  0.38518  0.21513  0.33376  1.0000
  H   H7        1.0  0.44330  0.41624  0.66370  1.0000
  H   H8        1.0  0.55670  0.58377  0.33629  1.0000
  H   H9        1.0  0.70803  0.78673  0.48695  1.0000
  H   H10       1.0  0.29197  0.21328  0.51305  1.0000
  H   H11       1.0  0.80101  0.64322  0.41598  1.0000
  H   H12       1.0  0.19899  0.35679  0.58402  1.0000
  H   H13       1.0  0.09052  0.68484  0.42169  1.0000
  H   H14       1.0  0.90948  0.31516  0.57831  1.0000
  H   H15       1.0  0.42316  0.99899  0.31595  1.0000
  H   H16       1.0  0.57684  0.00101  0.68405  1.0000
  H   H17       1.0  0.22502  0.94385  0.60218  1.0000
  H   H18       1.0  0.77498  0.05615  0.39782  1.0000
  H   H19       1.0  0.86959  0.69238  0.78007  1.0000
  H   H20       1.0  0.13041  0.30762  0.21993  1.0000
  H   H21       1.0  0.74325  0.32318  0.88704  1.0000
  H   H22       1.0  0.25675  0.67682  0.11296  1.0000
  H   H23       1.0  0.83122  0.42135  0.76838  1.0000
  H   H24       1.0  0.16878  0.57865  0.23162  1.0000
  C   C1        1.0  0.25768  0.38338  0.87681  1.0000
  C   C2        1.0  0.74233  0.61662  0.12319  1.0000
  C   C3        1.0  0.35468  0.49650  0.81831  1.0000
  C   C4        1.0  0.64532  0.50350  0.18169  1.0000
  C   C5        1.0  0.36029  0.59715  0.87623  1.0000
  C   C6        1.0  0.63971  0.40285  0.12377  1.0000
  C   C7        1.0  0.45317  0.70162  0.82077  1.0000
  C   C8        1.0  0.54683  0.29838  0.17923  1.0000
  C   C9        1.0  0.45881  0.80919  0.88273  1.0000
  C   C10       1.0  0.54119  0.19081  0.11727  1.0000
  C   C11       1.0  0.54267  0.70342  0.70861  1.0000
  C   C12       1.0  0.45733  0.29658  0.29139  1.0000
  C   C13       1.0  0.53873  0.59996  0.65341  1.0000
  C   C14       1.0  0.46127  0.40004  0.34659  1.0000
  C   C15       1.0  0.44410  0.49690  0.70725  1.0000
  C   C16       1.0  0.55590  0.50310  0.29275  1.0000
  C   C17       1.0  0.75186  0.66198  0.50374  1.0000
  C   C18       1.0  0.24813  0.33802  0.49626  1.0000
  C   C19       1.0  0.97079  0.67933  0.60141  1.0000
  C   C20       1.0  0.02921  0.32067  0.39859  1.0000
  C   C21       1.0  0.07859  0.72228  0.50109  1.0000
  C   C22       1.0  0.92141  0.27772  0.49891  1.0000
  C   C23       1.0  0.17242  0.81616  0.50253  1.0000
  C   C24       1.0  0.82758  0.18384  0.49748  1.0000
  C   C25       1.0  0.28319  0.86361  0.39302  1.0000
  C   C26       1.0  0.71681  0.13639  0.60698  1.0000
  C   C27       1.0  0.15544  0.86812  0.60211  1.0000
  C   C28       1.0  0.84456  0.13188  0.39789  1.0000
  C   C29       1.0  0.04696  0.82437  0.70261  1.0000
  C   C30       1.0  0.95304  0.17562  0.29739  1.0000
  C   C31       1.0  0.02824  0.88758  0.80540  1.0000
  C   C32       1.0  0.97177  0.11242  0.19460  1.0000
  C   C33       1.0  0.95500  0.72807  0.70300  1.0000
  C   C34       1.0  0.04500  0.27193  0.29700  1.0000
  O   O1        1.0  0.18308  0.39069  0.98409  1.0000
  O   O2        1.0  0.81692  0.60931  0.01591  1.0000
  O   O3        1.0  0.25135  0.29092  0.82892  1.0000
  O   O4        1.0  0.74866  0.70907  0.17108  1.0000
  O   O5        1.0  0.39838  0.78650  0.99376  1.0000
  O   O6        1.0  0.60162  0.21350  0.00624  1.0000
  O   O7        1.0  0.52725  0.91718  0.82269  1.0000
  O   O8        1.0  0.47275  0.08282  0.17731  1.0000
  O   O9        1.0  0.62579  0.58989  0.54485  1.0000
  O   O10       1.0  0.37421  0.41011  0.45515  1.0000
  O   O11       1.0  0.87565  0.58659  0.60152  1.0000
  O   O12       1.0  0.12434  0.41341  0.39848  1.0000
  O   O13       1.0  0.37020  0.95101  0.40192  1.0000
  O   O14       1.0  0.62980  0.04899  0.59808  1.0000
  O   O15       1.0  0.28980  0.82538  0.30092  1.0000
  O   O16       1.0  0.71020  0.17462  0.69908  1.0000
  O   O17       1.0  0.93349  0.84188  0.90017  1.0000
  O   O18       1.0  0.06651  0.15812  0.09983  1.0000
  O   O19       1.0  0.10542  0.98445  0.79039  1.0000
  O   O20       1.0  0.89458  0.01555  0.20961  1.0000
  O   O21       1.0  0.84514  0.35305  0.85740  1.0000
  O   O22       1.0  0.15486  0.64695  0.14260  1.0000
