data_image0
_chemical_formula_structural       Nd2H22C34O22
_chemical_formula_sum              "Nd2 H22 C34 O22"
_cell_length_a       8.82933
_cell_length_b       8.86643
_cell_length_c       12.6909
_cell_angle_alpha    81.5476
_cell_angle_beta     69.5775
_cell_angle_gamma    61.3122

_space_group_name_H-M_alt    "P 1"
_space_group_IT_number       1

loop_
  _space_group_symop_operation_xyz
  'x, y, z'

loop_
  _atom_site_type_symbol
  _atom_site_label
  _atom_site_symmetry_multiplicity
  _atom_site_fract_x
  _atom_site_fract_y
  _atom_site_fract_z
  _atom_site_occupancy
  Nd  Nd1       1.0  0.08533  0.76672  0.58107  1.0000
  Nd  Nd2       1.0  0.91467  0.23328  0.41893  1.0000
  H   H1        1.0  0.54364  0.81834  0.46149  1.0000
  H   H2        1.0  0.45636  0.18166  0.53851  1.0000
  H   H3        1.0  0.48165  0.00850  0.14091  1.0000
  H   H4        1.0  0.51835  0.99150  0.85909  1.0000
  H   H5        1.0  0.93095  0.97166  0.22545  1.0000
  H   H6        1.0  0.06905  0.02834  0.77456  1.0000
  H   H7        1.0  0.71434  0.91250  0.98578  1.0000
  H   H8        1.0  0.28566  0.08750  0.01422  1.0000
  H   H9        1.0  0.84890  0.01313  0.89679  1.0000
  H   H10       1.0  0.15109  0.98687  0.10321  1.0000
  H   H11       1.0  0.83093  0.27664  0.93595  1.0000
  H   H12       1.0  0.16907  0.72336  0.06405  1.0000
  H   H13       1.0  0.05721  0.54616  0.84001  1.0000
  H   H14       1.0  0.94279  0.45384  0.15999  1.0000
  H   H15       1.0  0.62022  0.66776  0.70689  1.0000
  H   H16       1.0  0.37978  0.33224  0.29311  1.0000
  H   H17       1.0  0.33571  0.37507  0.88237  1.0000
  H   H18       1.0  0.66429  0.62494  0.11763  1.0000
  H   H19       1.0  0.21047  0.40410  0.50187  1.0000
  H   H20       1.0  0.78953  0.59590  0.49813  1.0000
  H   H21       1.0  0.39107  0.43187  0.45265  1.0000
  H   H22       1.0  0.60893  0.56813  0.54735  1.0000
  C   C1        1.0  0.84649  0.85692  0.43397  1.0000
  C   C2        1.0  0.15351  0.14308  0.56603  1.0000
  C   C3        1.0  0.74748  0.89237  0.35233  1.0000
  C   C4        1.0  0.25252  0.10763  0.64767  1.0000
  C   C5        1.0  0.59511  0.86462  0.37962  1.0000
  C   C6        1.0  0.40489  0.13539  0.62038  1.0000
  C   C7        1.0  0.50073  0.90753  0.30276  1.0000
  C   C8        1.0  0.49927  0.09247  0.69724  1.0000
  C   C9        1.0  0.32418  0.89912  0.33730  1.0000
  C   C10       1.0  0.67582  0.10088  0.66269  1.0000
  C   C11       1.0  0.56182  0.97043  0.19730  1.0000
  C   C12       1.0  0.43818  0.02957  0.80270  1.0000
  C   C13       1.0  0.72169  0.98549  0.16794  1.0000
  C   C14       1.0  0.27831  0.01451  0.83206  1.0000
  C   C15       1.0  0.81070  0.95288  0.24683  1.0000
  C   C16       1.0  0.18930  0.04712  0.75317  1.0000
  C   C17       1.0  0.74034  0.02402  0.97557  1.0000
  C   C18       1.0  0.25965  0.97598  0.02443  1.0000
  C   C19       1.0  0.58632  0.30724  0.91158  1.0000
  C   C20       1.0  0.41368  0.69276  0.08842  1.0000
  C   C21       1.0  0.72875  0.34691  0.89387  1.0000
  C   C22       1.0  0.27125  0.65309  0.10613  1.0000
  C   C23       1.0  0.73796  0.47881  0.81992  1.0000
  C   C24       1.0  0.26205  0.52119  0.18008  1.0000
  C   C25       1.0  0.88615  0.52803  0.79190  1.0000
  C   C26       1.0  0.11385  0.47197  0.20810  1.0000
  C   C27       1.0  0.60727  0.56900  0.76569  1.0000
  C   C28       1.0  0.39273  0.43100  0.23431  1.0000
  C   C29       1.0  0.46000  0.53492  0.78956  1.0000
  C   C30       1.0  0.54000  0.46508  0.21044  1.0000
  C   C31       1.0  0.32631  0.62774  0.72726  1.0000
  C   C32       1.0  0.67369  0.37226  0.27275  1.0000
  C   C33       1.0  0.44734  0.40614  0.86455  1.0000
  C   C34       1.0  0.55266  0.59386  0.13545  1.0000
  O   O1        1.0  0.86777  0.73008  0.49925  1.0000
  O   O2        1.0  0.13223  0.26992  0.50075  1.0000
  O   O3        1.0  0.91478  0.95449  0.43685  1.0000
  O   O4        1.0  0.08522  0.04551  0.56315  1.0000
  O   O5        1.0  0.30816  0.78148  0.40289  1.0000
  O   O6        1.0  0.69184  0.21852  0.59711  1.0000
  O   O7        1.0  0.19995  0.01827  0.30020  1.0000
  O   O8        1.0  0.80005  0.98173  0.69980  1.0000
  O   O9        1.0  0.80022  0.03303  0.06324  1.0000
  O   O10       1.0  0.19978  0.96697  0.93676  1.0000
  O   O11       1.0  0.57338  0.17010  0.97404  1.0000
  O   O12       1.0  0.42662  0.82990  0.02596  1.0000
  O   O13       1.0  0.96965  0.49422  0.86828  1.0000
  O   O14       1.0  0.03034  0.50578  0.13172  1.0000
  O   O15       1.0  0.92469  0.59951  0.70233  1.0000
  O   O16       1.0  0.07531  0.40049  0.29767  1.0000
  O   O17       1.0  0.15904  0.65987  0.77215  1.0000
  O   O18       1.0  0.84096  0.34013  0.22785  1.0000
  O   O19       1.0  0.38069  0.67492  0.62699  1.0000
  O   O20       1.0  0.61931  0.32508  0.37301  1.0000
  O   O21       1.0  0.26138  0.48394  0.50163  1.0000
  O   O22       1.0  0.73862  0.51606  0.49837  1.0000
