data_image0
_chemical_formula_structural       La2H22C34O22
_chemical_formula_sum              "La2 H22 C34 O22"
_cell_length_a       8.89135
_cell_length_b       8.90237
_cell_length_c       12.7275
_cell_angle_alpha    81.9576
_cell_angle_beta     69.3003
_cell_angle_gamma    60.9265

_space_group_name_H-M_alt    "P 1"
_space_group_IT_number       1

loop_
  _space_group_symop_operation_xyz
  'x, y, z'

loop_
  _atom_site_type_symbol
  _atom_site_label
  _atom_site_symmetry_multiplicity
  _atom_site_fract_x
  _atom_site_fract_y
  _atom_site_fract_z
  _atom_site_occupancy
  La  La1       1.0  0.08559  0.76555  0.58466  1.0000
  La  La2       1.0  0.91441  0.23445  0.41534  1.0000
  H   H1        1.0  0.54621  0.81536  0.46118  1.0000
  H   H2        1.0  0.45379  0.18464  0.53881  1.0000
  H   H3        1.0  0.48568  0.00437  0.14234  1.0000
  H   H4        1.0  0.51432  0.99563  0.85766  1.0000
  H   H5        1.0  0.93168  0.96744  0.22688  1.0000
  H   H6        1.0  0.06832  0.03256  0.77312  1.0000
  H   H7        1.0  0.72114  0.90775  0.98604  1.0000
  H   H8        1.0  0.27886  0.09226  0.01396  1.0000
  H   H9        1.0  0.85499  0.00811  0.89890  1.0000
  H   H10       1.0  0.14501  0.99189  0.10110  1.0000
  H   H11       1.0  0.83293  0.27249  0.93873  1.0000
  H   H12       1.0  0.16707  0.72751  0.06126  1.0000
  H   H13       1.0  0.05967  0.53617  0.84324  1.0000
  H   H14       1.0  0.94033  0.46382  0.15676  1.0000
  H   H15       1.0  0.61933  0.66361  0.71380  1.0000
  H   H16       1.0  0.38066  0.33639  0.28620  1.0000
  H   H17       1.0  0.34061  0.36954  0.88614  1.0000
  H   H18       1.0  0.65939  0.63045  0.11386  1.0000
  H   H19       1.0  0.21575  0.40003  0.49626  1.0000
  H   H20       1.0  0.78425  0.59997  0.50374  1.0000
  H   H21       1.0  0.39398  0.42982  0.44532  1.0000
  H   H22       1.0  0.60602  0.57018  0.55468  1.0000
  C   C1        1.0  0.84515  0.85532  0.43514  1.0000
  C   C2        1.0  0.15485  0.14468  0.56487  1.0000
  C   C3        1.0  0.74877  0.88909  0.35308  1.0000
  C   C4        1.0  0.25123  0.11091  0.64692  1.0000
  C   C5        1.0  0.59758  0.86149  0.37985  1.0000
  C   C6        1.0  0.40242  0.13851  0.62015  1.0000
  C   C7        1.0  0.50448  0.90388  0.30319  1.0000
  C   C8        1.0  0.49552  0.09612  0.69681  1.0000
  C   C9        1.0  0.32980  0.89430  0.33739  1.0000
  C   C10       1.0  0.67020  0.10571  0.66261  1.0000
  C   C11       1.0  0.56523  0.96671  0.19842  1.0000
  C   C12       1.0  0.43477  0.03329  0.80158  1.0000
  C   C13       1.0  0.72412  0.98159  0.16946  1.0000
  C   C14       1.0  0.27588  0.01841  0.83054  1.0000
  C   C15       1.0  0.81204  0.94909  0.24813  1.0000
  C   C16       1.0  0.18797  0.05091  0.75187  1.0000
  C   C17       1.0  0.74535  0.01945  0.97715  1.0000
  C   C18       1.0  0.25465  0.98055  0.02285  1.0000
  C   C19       1.0  0.59004  0.30211  0.91466  1.0000
  C   C20       1.0  0.40996  0.69789  0.08534  1.0000
  C   C21       1.0  0.73080  0.34226  0.89731  1.0000
  C   C22       1.0  0.26920  0.65774  0.10269  1.0000
  C   C23       1.0  0.73865  0.47431  0.82462  1.0000
  C   C24       1.0  0.26135  0.52569  0.17538  1.0000
  C   C25       1.0  0.88531  0.52375  0.79689  1.0000
  C   C26       1.0  0.11469  0.47625  0.20311  1.0000
  C   C27       1.0  0.60779  0.56454  0.77152  1.0000
  C   C28       1.0  0.39221  0.43547  0.22848  1.0000
  C   C29       1.0  0.46225  0.52975  0.79488  1.0000
  C   C30       1.0  0.53775  0.47024  0.20512  1.0000
  C   C31       1.0  0.32801  0.62217  0.73393  1.0000
  C   C32       1.0  0.67198  0.37783  0.26607  1.0000
  C   C33       1.0  0.45128  0.40068  0.86844  1.0000
  C   C34       1.0  0.54872  0.59932  0.13156  1.0000
  O   O1        1.0  0.85907  0.73413  0.50350  1.0000
  O   O2        1.0  0.14093  0.26587  0.49651  1.0000
  O   O3        1.0  0.91755  0.94940  0.43515  1.0000
  O   O4        1.0  0.08246  0.05060  0.56485  1.0000
  O   O5        1.0  0.31347  0.77977  0.40466  1.0000
  O   O6        1.0  0.68653  0.22023  0.59534  1.0000
  O   O7        1.0  0.20647  0.00911  0.29856  1.0000
  O   O8        1.0  0.79353  0.99090  0.70144  1.0000
  O   O9        1.0  0.80262  0.02915  0.06539  1.0000
  O   O10       1.0  0.19738  0.97085  0.93461  1.0000
  O   O11       1.0  0.57823  0.16516  0.97597  1.0000
  O   O12       1.0  0.42177  0.83484  0.02403  1.0000
  O   O13       1.0  0.97188  0.48570  0.87125  1.0000
  O   O14       1.0  0.02812  0.51429  0.12875  1.0000
  O   O15       1.0  0.92058  0.59897  0.70929  1.0000
  O   O16       1.0  0.07941  0.40103  0.29072  1.0000
  O   O17       1.0  0.16293  0.64908  0.77842  1.0000
  O   O18       1.0  0.83707  0.35092  0.22158  1.0000
  O   O19       1.0  0.38058  0.67383  0.63532  1.0000
  O   O20       1.0  0.61942  0.32617  0.36468  1.0000
  O   O21       1.0  0.26433  0.48147  0.49556  1.0000
  O   O22       1.0  0.73567  0.51853  0.50444  1.0000
