data_image0
_chemical_formula_structural       Sm2H26C34O24
_chemical_formula_sum              "Sm2 H26 C34 O24"
_cell_length_a       10.1919
_cell_length_b       10.4324
_cell_length_c       11.096
_cell_angle_alpha    96.3061
_cell_angle_beta     112.419
_cell_angle_gamma    103.909

_space_group_name_H-M_alt    "P 1"
_space_group_IT_number       1

loop_
  _space_group_symop_operation_xyz
  'x, y, z'

loop_
  _atom_site_type_symbol
  _atom_site_label
  _atom_site_symmetry_multiplicity
  _atom_site_fract_x
  _atom_site_fract_y
  _atom_site_fract_z
  _atom_site_occupancy
  Sm  Sm1       1.0  0.09250  0.85485  0.49070  1.0000
  Sm  Sm2       1.0  0.90750  0.14514  0.50929  1.0000
  H   H1        1.0  0.57419  0.86655  0.45466  1.0000
  H   H2        1.0  0.42581  0.13344  0.54533  1.0000
  H   H3        1.0  0.16662  0.60328  0.13740  1.0000
  H   H4        1.0  0.83337  0.39672  0.86259  1.0000
  H   H5        1.0  0.58784  0.59446  0.13773  1.0000
  H   H6        1.0  0.41216  0.40554  0.86226  1.0000
  H   H7        1.0  0.10306  0.53679  0.90846  1.0000
  H   H8        1.0  0.89693  0.46321  0.09154  1.0000
  H   H9        1.0  0.12846  0.38669  0.83359  1.0000
  H   H10       1.0  0.87154  0.61331  0.16640  1.0000
  H   H11       1.0  0.99179  0.27408  0.16206  1.0000
  H   H12       1.0  0.00820  0.72591  0.83792  1.0000
  H   H13       1.0  0.20330  0.96248  0.18024  1.0000
  H   H14       1.0  0.79671  0.03753  0.81977  1.0000
  H   H15       1.0  0.44807  0.91578  0.05051  1.0000
  H   H16       1.0  0.55197  0.08422  0.94950  1.0000
  H   H17       1.0  0.25004  0.24715  0.93397  1.0000
  H   H18       1.0  0.75000  0.75286  0.06605  1.0000
  H   H19       1.0  0.34055  0.96090  0.78051  1.0000
  H   H20       1.0  0.65945  0.03910  0.21950  1.0000
  H   H21       1.0  0.40399  0.92508  0.67587  1.0000
  H   H22       1.0  0.59600  0.07492  0.32413  1.0000
  H   H23       1.0  0.19648  0.65736  0.64868  1.0000
  H   H24       1.0  0.80355  0.34263  0.35131  1.0000
  H   H25       1.0  0.10826  0.56712  0.50292  1.0000
  H   H26       1.0  0.89163  0.43279  0.49710  1.0000
  C   C1        1.0  0.76524  0.78382  0.36526  1.0000
  C   C2        1.0  0.23476  0.21618  0.63473  1.0000
  C   C3        1.0  0.59907  0.73636  0.30235  1.0000
  C   C4        1.0  0.40092  0.26363  0.69765  1.0000
  C   C5        1.0  0.51812  0.78899  0.36181  1.0000
  C   C6        1.0  0.48187  0.21100  0.63819  1.0000
  C   C7        1.0  0.36252  0.73592  0.30285  1.0000
  C   C8        1.0  0.63747  0.26408  0.69715  1.0000
  C   C9        1.0  0.27193  0.77512  0.37112  1.0000
  C   C10       1.0  0.72806  0.22488  0.62887  1.0000
  C   C11       1.0  0.28757  0.63981  0.18097  1.0000
  C   C12       1.0  0.71243  0.36018  0.81902  1.0000
  C   C13       1.0  0.36964  0.59309  0.12009  1.0000
  C   C14       1.0  0.63036  0.40692  0.87990  1.0000
  C   C15       1.0  0.52537  0.63683  0.18328  1.0000
  C   C16       1.0  0.47462  0.36316  0.81672  1.0000
  C   C17       1.0  0.15023  0.45299  0.92724  1.0000
  C   C18       1.0  0.84976  0.54701  0.07275  1.0000
  C   C19       1.0  0.11509  0.27343  0.04098  1.0000
  C   C20       1.0  0.88491  0.72657  0.95902  1.0000
  C   C21       1.0  0.05935  0.22459  0.12985  1.0000
  C   C22       1.0  0.94066  0.77541  0.87015  1.0000
  C   C23       1.0  0.08957  0.11202  0.17825  1.0000
  C   C24       1.0  0.91044  0.88798  0.82176  1.0000
  C   C25       1.0  0.02782  0.06031  0.27271  1.0000
  C   C26       1.0  0.97217  0.93969  0.72728  1.0000
  C   C27       1.0  0.17891  0.04910  0.14077  1.0000
  C   C28       1.0  0.82110  0.95092  0.85924  1.0000
  C   C29       1.0  0.23600  0.09994  0.05324  1.0000
  C   C30       1.0  0.76402  0.90008  0.94677  1.0000
  C   C31       1.0  0.33444  0.03988  0.01419  1.0000
  C   C32       1.0  0.66556  0.96013  0.98582  1.0000
  C   C33       1.0  0.20393  0.21144  0.00205  1.0000
  C   C34       1.0  0.79610  0.78858  0.99797  1.0000
  O   O1        1.0  0.83752  0.70337  0.35240  1.0000
  O   O2        1.0  0.16247  0.29662  0.64759  1.0000
  O   O3        1.0  0.83459  0.90663  0.43319  1.0000
  O   O4        1.0  0.16540  0.09337  0.56680  1.0000
  O   O5        1.0  0.32871  0.88274  0.46453  1.0000
  O   O6        1.0  0.67129  0.11725  0.53549  1.0000
  O   O7        1.0  0.13865  0.69884  0.33590  1.0000
  O   O8        1.0  0.86133  0.30117  0.66407  1.0000
  O   O9        1.0  0.30768  0.50098  0.99909  1.0000
  O   O10       1.0  0.69232  0.49902  0.00090  1.0000
  O   O11       1.0  0.07769  0.38377  0.99926  1.0000
  O   O12       1.0  0.92231  0.61624  0.00074  1.0000
  O   O13       1.0  0.96458  0.13185  0.31807  1.0000
  O   O14       1.0  0.03542  0.86816  0.68192  1.0000
  O   O15       1.0  0.04335  0.94839  0.30065  1.0000
  O   O16       1.0  0.95667  0.05163  0.69935  1.0000
  O   O17       1.0  0.39019  0.08609  0.93865  1.0000
  O   O18       1.0  0.60984  0.91393  0.06137  1.0000
  O   O19       1.0  0.36152  0.93504  0.06535  1.0000
  O   O20       1.0  0.63849  0.06497  0.93467  1.0000
  O   O21       1.0  0.32613  0.89070  0.70565  1.0000
  O   O22       1.0  0.67386  0.10930  0.29435  1.0000
  O   O23       1.0  0.10333  0.63436  0.56836  1.0000
  O   O24       1.0  0.89668  0.36566  0.43165  1.0000
