data_image0
_chemical_formula_structural       Nd2H30C36O24
_chemical_formula_sum              "Nd2 H30 C36 O24"
_cell_length_a       8.08161
_cell_length_b       10.0012
_cell_length_c       12.7357
_cell_angle_alpha    92.6396
_cell_angle_beta     95.7148
_cell_angle_gamma    92.9799

_space_group_name_H-M_alt    "P 1"
_space_group_IT_number       1

loop_
  _space_group_symop_operation_xyz
  'x, y, z'

loop_
  _atom_site_type_symbol
  _atom_site_label
  _atom_site_symmetry_multiplicity
  _atom_site_fract_x
  _atom_site_fract_y
  _atom_site_fract_z
  _atom_site_occupancy
  Nd  Nd1       1.0  0.41601  0.60825  0.67485  1.0000
  Nd  Nd2       1.0  0.58399  0.39175  0.32514  1.0000
  H   H1        1.0  0.48375  0.08896  0.72886  1.0000
  H   H2        1.0  0.51625  0.91104  0.27115  1.0000
  H   H3        1.0  0.27448  0.33437  0.96339  1.0000
  H   H4        1.0  0.72551  0.66563  0.03662  1.0000
  H   H5        1.0  0.27166  0.90252  0.98322  1.0000
  H   H6        1.0  0.72835  0.09748  0.01678  1.0000
  H   H7        1.0  0.26626  0.97471  0.16280  1.0000
  H   H8        1.0  0.73374  0.02529  0.83720  1.0000
  H   H9        1.0  0.07276  0.95218  0.08006  1.0000
  H   H10       1.0  0.92724  0.04781  0.91994  1.0000
  H   H11       1.0  0.13755  0.12773  0.28613  1.0000
  H   H12       1.0  0.86246  0.87226  0.71387  1.0000
  H   H13       1.0  0.94838  0.12014  0.19840  1.0000
  H   H14       1.0  0.05162  0.87986  0.80161  1.0000
  H   H15       1.0  0.91641  0.72392  0.34513  1.0000
  H   H16       1.0  0.08359  0.27608  0.65487  1.0000
  H   H17       1.0  0.64082  0.90417  0.58278  1.0000
  H   H18       1.0  0.35916  0.09583  0.41722  1.0000
  H   H19       1.0  0.60642  0.24198  0.65392  1.0000
  H   H20       1.0  0.39358  0.75802  0.34607  1.0000
  H   H21       1.0  0.88872  0.15346  0.37174  1.0000
  H   H22       1.0  0.11127  0.84654  0.62826  1.0000
  H   H23       1.0  0.06704  0.59896  0.75335  1.0000
  H   H24       1.0  0.93295  0.40104  0.24665  1.0000
  H   H25       1.0  0.05224  0.53791  0.63684  1.0000
  H   H26       1.0  0.94776  0.46209  0.36316  1.0000
  H   H27       1.0  0.71274  0.70383  0.84439  1.0000
  H   H28       1.0  0.28727  0.29617  0.15561  1.0000
  H   H29       1.0  0.61356  0.57572  0.87495  1.0000
  H   H30       1.0  0.38644  0.42428  0.12504  1.0000
  C   C1        1.0  0.40587  0.85295  0.80079  1.0000
  C   C2        1.0  0.59413  0.14705  0.19921  1.0000
  C   C3        1.0  0.38043  0.98642  0.85236  1.0000
  C   C4        1.0  0.61958  0.01358  0.14764  1.0000
  C   C5        1.0  0.42684  0.10120  0.80207  1.0000
  C   C6        1.0  0.57317  0.89880  0.19793  1.0000
  C   C7        1.0  0.38994  0.22691  0.84293  1.0000
  C   C8        1.0  0.61007  0.77310  0.15707  1.0000
  C   C9        1.0  0.42430  0.35224  0.78720  1.0000
  C   C10       1.0  0.57571  0.64776  0.21280  1.0000
  C   C11       1.0  0.30944  0.23643  0.93497  1.0000
  C   C12       1.0  0.69056  0.76357  0.06504  1.0000
  C   C13       1.0  0.26991  0.12121  0.98764  1.0000
  C   C14       1.0  0.73010  0.87879  0.01237  1.0000
  C   C15       1.0  0.30330  0.99493  0.94599  1.0000
  C   C16       1.0  0.69671  0.00507  0.05401  1.0000
  C   C17       1.0  0.15267  0.02322  0.13398  1.0000
  C   C18       1.0  0.84734  0.97677  0.86602  1.0000
  C   C19       1.0  0.05791  0.06513  0.22575  1.0000
  C   C20       1.0  0.94209  0.93487  0.77425  1.0000
  C   C21       1.0  0.91482  0.93911  0.34922  1.0000
  C   C22       1.0  0.08517  0.06088  0.65078  1.0000
  C   C23       1.0  0.87319  0.81250  0.38458  1.0000
  C   C24       1.0  0.12680  0.18750  0.61542  1.0000
  C   C25       1.0  0.77457  0.79906  0.46780  1.0000
  C   C26       1.0  0.22542  0.20094  0.53220  1.0000
  C   C27       1.0  0.72374  0.65987  0.49746  1.0000
  C   C28       1.0  0.27626  0.34013  0.50254  1.0000
  C   C29       1.0  0.71810  0.91374  0.51783  1.0000
  C   C30       1.0  0.28189  0.08626  0.48216  1.0000
  C   C31       1.0  0.75958  0.03992  0.48132  1.0000
  C   C32       1.0  0.24041  0.96008  0.51867  1.0000
  C   C33       1.0  0.70072  0.16541  0.52845  1.0000
  C   C34       1.0  0.29927  0.83459  0.47155  1.0000
  C   C35       1.0  0.85764  0.05358  0.39710  1.0000
  C   C36       1.0  0.14235  0.94642  0.60290  1.0000
  O   O1        1.0  0.33181  0.74761  0.83074  1.0000
  O   O2        1.0  0.66821  0.25239  0.16927  1.0000
  O   O3        1.0  0.49763  0.84795  0.72448  1.0000
  O   O4        1.0  0.50237  0.15206  0.27552  1.0000
  O   O5        1.0  0.51510  0.35492  0.71006  1.0000
  O   O6        1.0  0.48491  0.64508  0.28994  1.0000
  O   O7        1.0  0.35783  0.45830  0.81825  1.0000
  O   O8        1.0  0.64217  0.54171  0.18175  1.0000
  O   O9        1.0  0.19526  0.14127  0.07958  1.0000
  O   O10       1.0  0.80474  0.85873  0.92043  1.0000
  O   O11       1.0  0.00866  0.93951  0.26627  1.0000
  O   O12       1.0  0.99134  0.06048  0.73373  1.0000
  O   O13       1.0  0.75882  0.56147  0.43790  1.0000
  O   O14       1.0  0.24118  0.43853  0.56210  1.0000
  O   O15       1.0  0.64611  0.64613  0.57851  1.0000
  O   O16       1.0  0.35388  0.35387  0.42149  1.0000
  O   O17       1.0  0.69490  0.27095  0.48032  1.0000
  O   O18       1.0  0.30509  0.72905  0.51968  1.0000
  O   O19       1.0  0.65783  0.15701  0.62514  1.0000
  O   O20       1.0  0.34216  0.84298  0.37486  1.0000
  O   O21       1.0  0.09448  0.61626  0.68230  1.0000
  O   O22       1.0  0.90552  0.38374  0.31770  1.0000
  O   O23       1.0  0.66734  0.61403  0.81708  1.0000
  O   O24       1.0  0.33267  0.38598  0.18292  1.0000
