data_image0
_chemical_formula_structural       Sm2H30C36O24
_chemical_formula_sum              "Sm2 H30 C36 O24"
_cell_length_a       8.17469
_cell_length_b       9.96933
_cell_length_c       12.6093
_cell_angle_alpha    92.4171
_cell_angle_beta     96.0539
_cell_angle_gamma    93.0642

_space_group_name_H-M_alt    "P 1"
_space_group_IT_number       1

loop_
  _space_group_symop_operation_xyz
  'x, y, z'

loop_
  _atom_site_type_symbol
  _atom_site_label
  _atom_site_symmetry_multiplicity
  _atom_site_fract_x
  _atom_site_fract_y
  _atom_site_fract_z
  _atom_site_occupancy
  Sm  Sm1       1.0  0.41584  0.60978  0.67429  1.0000
  Sm  Sm2       1.0  0.58416  0.39022  0.32571  1.0000
  H   H1        1.0  0.48236  0.08852  0.72750  1.0000
  H   H2        1.0  0.51764  0.91148  0.27250  1.0000
  H   H3        1.0  0.27743  0.33449  0.96377  1.0000
  H   H4        1.0  0.72257  0.66551  0.03623  1.0000
  H   H5        1.0  0.27332  0.90148  0.98455  1.0000
  H   H6        1.0  0.72668  0.09852  0.01545  1.0000
  H   H7        1.0  0.26594  0.97339  0.16629  1.0000
  H   H8        1.0  0.73406  0.02661  0.83372  1.0000
  H   H9        1.0  0.07647  0.95105  0.08007  1.0000
  H   H10       1.0  0.92353  0.04895  0.91993  1.0000
  H   H11       1.0  0.13508  0.12701  0.28835  1.0000
  H   H12       1.0  0.86493  0.87300  0.71165  1.0000
  H   H13       1.0  0.95027  0.11917  0.19713  1.0000
  H   H14       1.0  0.04973  0.88083  0.80287  1.0000
  H   H15       1.0  0.91235  0.72230  0.34548  1.0000
  H   H16       1.0  0.08765  0.27770  0.65452  1.0000
  H   H17       1.0  0.63846  0.90409  0.58263  1.0000
  H   H18       1.0  0.36154  0.09591  0.41737  1.0000
  H   H19       1.0  0.60803  0.24281  0.65458  1.0000
  H   H20       1.0  0.39197  0.75719  0.34542  1.0000
  H   H21       1.0  0.89056  0.15338  0.37235  1.0000
  H   H22       1.0  0.10945  0.84661  0.62765  1.0000
  H   H23       1.0  0.08691  0.59741  0.75849  1.0000
  H   H24       1.0  0.91309  0.40259  0.24151  1.0000
  H   H25       1.0  0.06265  0.53486  0.64113  1.0000
  H   H26       1.0  0.93735  0.46514  0.35887  1.0000
  H   H27       1.0  0.70845  0.70474  0.84168  1.0000
  H   H28       1.0  0.29154  0.29526  0.15831  1.0000
  H   H29       1.0  0.60850  0.57813  0.87437  1.0000
  H   H30       1.0  0.39150  0.42187  0.12563  1.0000
  C   C1        1.0  0.40522  0.85162  0.80071  1.0000
  C   C2        1.0  0.59478  0.14838  0.19929  1.0000
  C   C3        1.0  0.38040  0.98546  0.85224  1.0000
  C   C4        1.0  0.61960  0.01454  0.14776  1.0000
  C   C5        1.0  0.42642  0.10068  0.80136  1.0000
  C   C6        1.0  0.57358  0.89932  0.19864  1.0000
  C   C7        1.0  0.39094  0.22685  0.84240  1.0000
  C   C8        1.0  0.60906  0.77315  0.15759  1.0000
  C   C9        1.0  0.42546  0.35248  0.78579  1.0000
  C   C10       1.0  0.57453  0.64752  0.21421  1.0000
  C   C11       1.0  0.31168  0.23640  0.93516  1.0000
  C   C12       1.0  0.68832  0.76360  0.06484  1.0000
  C   C13       1.0  0.27225  0.12069  0.98838  1.0000
  C   C14       1.0  0.72776  0.87930  0.01163  1.0000
  C   C15       1.0  0.30473  0.99409  0.94671  1.0000
  C   C16       1.0  0.69527  0.00591  0.05329  1.0000
  C   C17       1.0  0.15438  0.02221  0.13541  1.0000
  C   C18       1.0  0.84562  0.97779  0.86459  1.0000
  C   C19       1.0  0.05803  0.06405  0.22643  1.0000
  C   C20       1.0  0.94197  0.93595  0.77357  1.0000
  C   C21       1.0  0.91382  0.93813  0.35001  1.0000
  C   C22       1.0  0.08618  0.06186  0.64999  1.0000
  C   C23       1.0  0.87042  0.81112  0.38521  1.0000
  C   C24       1.0  0.12958  0.18888  0.61479  1.0000
  C   C25       1.0  0.77138  0.79777  0.46815  1.0000
  C   C26       1.0  0.22863  0.20223  0.53185  1.0000
  C   C27       1.0  0.71742  0.65835  0.49702  1.0000
  C   C28       1.0  0.28258  0.34165  0.50298  1.0000
  C   C29       1.0  0.71642  0.91314  0.51804  1.0000
  C   C30       1.0  0.28358  0.08685  0.48196  1.0000
  C   C31       1.0  0.75971  0.03969  0.48170  1.0000
  C   C32       1.0  0.24029  0.96030  0.51830  1.0000
  C   C33       1.0  0.70182  0.16564  0.52868  1.0000
  C   C34       1.0  0.29818  0.83436  0.47132  1.0000
  C   C35       1.0  0.85808  0.05323  0.39767  1.0000
  C   C36       1.0  0.14192  0.94677  0.60233  1.0000
  O   O1        1.0  0.33503  0.74542  0.83235  1.0000
  O   O2        1.0  0.66497  0.25458  0.16765  1.0000
  O   O3        1.0  0.49282  0.84687  0.72231  1.0000
  O   O4        1.0  0.50718  0.15313  0.27769  1.0000
  O   O5        1.0  0.51727  0.35543  0.70944  1.0000
  O   O6        1.0  0.48273  0.64457  0.29056  1.0000
  O   O7        1.0  0.35818  0.45868  0.81535  1.0000
  O   O8        1.0  0.64182  0.54132  0.18465  1.0000
  O   O9        1.0  0.19838  0.14065  0.08089  1.0000
  O   O10       1.0  0.80162  0.85935  0.91911  1.0000
  O   O11       1.0  0.00785  0.93823  0.26717  1.0000
  O   O12       1.0  0.99215  0.06177  0.73283  1.0000
  O   O13       1.0  0.75185  0.55970  0.43727  1.0000
  O   O14       1.0  0.24814  0.44031  0.56272  1.0000
  O   O15       1.0  0.63770  0.64489  0.57730  1.0000
  O   O16       1.0  0.36230  0.35511  0.42270  1.0000
  O   O17       1.0  0.69669  0.27151  0.47971  1.0000
  O   O18       1.0  0.30331  0.72848  0.52029  1.0000
  O   O19       1.0  0.65891  0.15738  0.62605  1.0000
  O   O20       1.0  0.34109  0.84262  0.37396  1.0000
  O   O21       1.0  0.10330  0.61550  0.68489  1.0000
  O   O22       1.0  0.89670  0.38450  0.31511  1.0000
  O   O23       1.0  0.66105  0.61500  0.81513  1.0000
  O   O24       1.0  0.33895  0.38500  0.18487  1.0000
