data_image0
_chemical_formula_structural       Mn2H28C40N2O14
_chemical_formula_sum              "Mn2 H28 C40 N2 O14"
_cell_length_a       6.77326
_cell_length_b       9.86022
_cell_length_c       13.1849
_cell_angle_alpha    94.3802
_cell_angle_beta     100.258
_cell_angle_gamma    96.3557

_space_group_name_H-M_alt    "P 1"
_space_group_IT_number       1

loop_
  _space_group_symop_operation_xyz
  'x, y, z'

loop_
  _atom_site_type_symbol
  _atom_site_label
  _atom_site_symmetry_multiplicity
  _atom_site_fract_x
  _atom_site_fract_y
  _atom_site_fract_z
  _atom_site_occupancy
  Mn  Mn1       1.0  0.68593  0.96075  0.59508  1.0000
  Mn  Mn2       1.0  0.31407  0.03925  0.40492  1.0000
  H   H1        1.0  0.69003  0.50888  0.96151  1.0000
  H   H2        1.0  0.30998  0.49112  0.03850  1.0000
  H   H3        1.0  0.97832  0.15667  0.04609  1.0000
  H   H4        1.0  0.02168  0.84334  0.95391  1.0000
  H   H5        1.0  0.94786  0.21109  0.22963  1.0000
  H   H6        1.0  0.05214  0.78890  0.77037  1.0000
  H   H7        1.0  0.65217  0.56176  0.14344  1.0000
  H   H8        1.0  0.34784  0.43824  0.85656  1.0000
  H   H9        1.0  0.81707  0.64569  0.30444  1.0000
  H   H10       1.0  0.18293  0.35431  0.69557  1.0000
  H   H11       1.0  0.72195  0.50785  0.59496  1.0000
  H   H12       1.0  0.27803  0.49214  0.40503  1.0000
  H   H13       1.0  0.74584  0.21253  0.34217  1.0000
  H   H14       1.0  0.25416  0.78747  0.65783  1.0000
  H   H15       1.0  0.41546  0.12563  0.71321  1.0000
  H   H16       1.0  0.58455  0.87438  0.28679  1.0000
  H   H17       1.0  0.72685  0.79576  0.78010  1.0000
  H   H18       1.0  0.27317  0.20424  0.21990  1.0000
  H   H19       1.0  0.68117  0.81508  0.96249  1.0000
  H   H20       1.0  0.31884  0.18492  0.03751  1.0000
  H   H21       1.0  0.34403  0.15569  0.89057  1.0000
  H   H22       1.0  0.65597  0.84431  0.10943  1.0000
  H   H23       1.0  0.76149  0.33721  0.74272  1.0000
  H   H24       1.0  0.23849  0.66279  0.25728  1.0000
  H   H25       1.0  0.97295  0.11234  0.73839  1.0000
  H   H26       1.0  0.02704  0.88766  0.26161  1.0000
  H   H27       1.0  0.06487  0.09739  0.63472  1.0000
  H   H28       1.0  0.93512  0.90261  0.36528  1.0000
  C   C1        1.0  0.86293  0.29745  0.88384  1.0000
  C   C2        1.0  0.13707  0.70255  0.11616  1.0000
  C   C3        1.0  0.84032  0.33081  0.99258  1.0000
  C   C4        1.0  0.15969  0.66920  0.00742  1.0000
  C   C5        1.0  0.74695  0.44445  0.02067  1.0000
  C   C6        1.0  0.25306  0.55555  0.97933  1.0000
  C   C7        1.0  0.91066  0.24679  0.06870  1.0000
  C   C8        1.0  0.08935  0.75321  0.93130  1.0000
  C   C9        1.0  0.89181  0.27696  0.17101  1.0000
  C   C10       1.0  0.10819  0.72304  0.82899  1.0000
  C   C11       1.0  0.72816  0.47457  0.12295  1.0000
  C   C12       1.0  0.27184  0.52543  0.87705  1.0000
  C   C13       1.0  0.80207  0.39233  0.20015  1.0000
  C   C14       1.0  0.19793  0.60767  0.79985  1.0000
  C   C15       1.0  0.78273  0.42502  0.30881  1.0000
  C   C16       1.0  0.21727  0.57498  0.69119  1.0000
  C   C17       1.0  0.79090  0.56114  0.35103  1.0000
  C   C18       1.0  0.20910  0.43886  0.64897  1.0000
  C   C19       1.0  0.77128  0.59074  0.45403  1.0000
  C   C20       1.0  0.22872  0.40926  0.54597  1.0000
  C   C21       1.0  0.77396  0.73430  0.49934  1.0000
  C   C22       1.0  0.22603  0.26569  0.50067  1.0000
  C   C23       1.0  0.74069  0.48399  0.51558  1.0000
  C   C24       1.0  0.25930  0.51600  0.48443  1.0000
  C   C25       1.0  0.75377  0.31933  0.37205  1.0000
  C   C26       1.0  0.24623  0.68067  0.62795  1.0000
  C   C27       1.0  0.47121  0.05945  0.77160  1.0000
  C   C28       1.0  0.52880  0.94055  0.22840  1.0000
  C   C29       1.0  0.64728  0.87612  0.80930  1.0000
  C   C30       1.0  0.35273  0.12389  0.19070  1.0000
  C   C31       1.0  0.61960  0.88755  0.91111  1.0000
  C   C32       1.0  0.38041  0.11245  0.08889  1.0000
  C   C33       1.0  0.43500  0.07629  0.87189  1.0000
  C   C34       1.0  0.56501  0.92372  0.12811  1.0000
  C   C35       1.0  0.51389  0.99126  0.94565  1.0000
  C   C36       1.0  0.48612  0.00874  0.05435  1.0000
  C   C37       1.0  0.73068  0.34828  0.47434  1.0000
  C   C38       1.0  0.26932  0.65172  0.52566  1.0000
  C   C39       1.0  0.69091  0.23463  0.53856  1.0000
  C   C40       1.0  0.30908  0.76537  0.46144  1.0000
  N   N1        1.0  0.57830  0.96222  0.74059  1.0000
  N   N2        1.0  0.42170  0.03778  0.25941  1.0000
  O   O1        1.0  0.96338  0.20651  0.85853  1.0000
  O   O2        1.0  0.03662  0.79349  0.14147  1.0000
  O   O3        1.0  0.76478  0.37337  0.81760  1.0000
  O   O4        1.0  0.23522  0.62663  0.18240  1.0000
  O   O5        1.0  0.74057  0.75227  0.59184  1.0000
  O   O6        1.0  0.25943  0.24773  0.40816  1.0000
  O   O7        1.0  0.79764  0.83608  0.44653  1.0000
  O   O8        1.0  0.20235  0.16391  0.55347  1.0000
  O   O9        1.0  0.64102  0.11163  0.49113  1.0000
  O   O10       1.0  0.35898  0.88837  0.50887  1.0000
  O   O11       1.0  0.70313  0.25600  0.63487  1.0000
  O   O12       1.0  0.29684  0.74399  0.36513  1.0000
  O   O13       1.0  0.98261  0.04666  0.67902  1.0000
  O   O14       1.0  0.01739  0.95334  0.32098  1.0000
