data_image0
_chemical_formula_structural       Co2H28C40N2O14
_chemical_formula_sum              "Co2 H28 C40 N2 O14"
_cell_length_a       6.95573
_cell_length_b       9.5119
_cell_length_c       13.0889
_cell_angle_alpha    92.9503
_cell_angle_beta     101.175
_cell_angle_gamma    94.9984

_space_group_name_H-M_alt    "P 1"
_space_group_IT_number       1

loop_
  _space_group_symop_operation_xyz
  'x, y, z'

loop_
  _atom_site_type_symbol
  _atom_site_label
  _atom_site_symmetry_multiplicity
  _atom_site_fract_x
  _atom_site_fract_y
  _atom_site_fract_z
  _atom_site_occupancy
  Co  Co1       1.0  0.68402  0.96701  0.60777  1.0000
  Co  Co2       1.0  0.31599  0.03299  0.39224  1.0000
  H   H1        1.0  0.69314  0.51644  0.95721  1.0000
  H   H2        1.0  0.30685  0.48357  0.04280  1.0000
  H   H3        1.0  0.65989  0.56962  0.14024  1.0000
  H   H4        1.0  0.34010  0.43038  0.85976  1.0000
  H   H5        1.0  0.94675  0.19862  0.23147  1.0000
  H   H6        1.0  0.05325  0.80138  0.76853  1.0000
  H   H7        1.0  0.97565  0.14548  0.04768  1.0000
  H   H8        1.0  0.02436  0.85453  0.95231  1.0000
  H   H9        1.0  0.82842  0.65168  0.30235  1.0000
  H   H10       1.0  0.17159  0.34832  0.69765  1.0000
  H   H11       1.0  0.71229  0.50851  0.59198  1.0000
  H   H12       1.0  0.28772  0.49148  0.40802  1.0000
  H   H13       1.0  0.74929  0.20423  0.34425  1.0000
  H   H14       1.0  0.25071  0.79577  0.65576  1.0000
  H   H15       1.0  0.40248  0.12868  0.70714  1.0000
  H   H16       1.0  0.59752  0.87132  0.29286  1.0000
  H   H17       1.0  0.33603  0.15822  0.88526  1.0000
  H   H18       1.0  0.66396  0.84177  0.11474  1.0000
  H   H19       1.0  0.68248  0.80811  0.96528  1.0000
  H   H20       1.0  0.31751  0.19187  0.03472  1.0000
  H   H21       1.0  0.72484  0.78957  0.78273  1.0000
  H   H22       1.0  0.27516  0.21042  0.21728  1.0000
  H   H23       1.0  0.75912  0.33673  0.73923  1.0000
  H   H24       1.0  0.24087  0.66328  0.26076  1.0000
  H   H25       1.0  0.96290  0.09971  0.74341  1.0000
  H   H26       1.0  0.03711  0.90031  0.25659  1.0000
  H   H27       1.0  0.04330  0.07941  0.63730  1.0000
  H   H28       1.0  0.95670  0.92060  0.36270  1.0000
  C   C1        1.0  0.86143  0.29515  0.88251  1.0000
  C   C2        1.0  0.13856  0.70487  0.11749  1.0000
  C   C3        1.0  0.84082  0.32919  0.99137  1.0000
  C   C4        1.0  0.15917  0.67081  0.00863  1.0000
  C   C5        1.0  0.75024  0.44829  0.01791  1.0000
  C   C6        1.0  0.24975  0.55172  0.98210  1.0000
  C   C7        1.0  0.73388  0.47850  0.12064  1.0000
  C   C8        1.0  0.26611  0.52151  0.87937  1.0000
  C   C9        1.0  0.80676  0.39081  0.19956  1.0000
  C   C10       1.0  0.19323  0.60919  0.80045  1.0000
  C   C11       1.0  0.89277  0.26965  0.17190  1.0000
  C   C12       1.0  0.10723  0.73035  0.82809  1.0000
  C   C13       1.0  0.90984  0.23966  0.06919  1.0000
  C   C14       1.0  0.09016  0.76035  0.93081  1.0000
  C   C15       1.0  0.78833  0.42377  0.30839  1.0000
  C   C16       1.0  0.21167  0.57623  0.69161  1.0000
  C   C17       1.0  0.79800  0.56413  0.34931  1.0000
  C   C18       1.0  0.20201  0.43587  0.65069  1.0000
  C   C19       1.0  0.77282  0.59479  0.45127  1.0000
  C   C20       1.0  0.22720  0.40520  0.54873  1.0000
  C   C21       1.0  0.73638  0.48452  0.51355  1.0000
  C   C22       1.0  0.26364  0.51548  0.48646  1.0000
  C   C23       1.0  0.72856  0.34438  0.47409  1.0000
  C   C24       1.0  0.27145  0.65563  0.52592  1.0000
  C   C25       1.0  0.75663  0.31442  0.37275  1.0000
  C   C26       1.0  0.24337  0.68558  0.62725  1.0000
  C   C27       1.0  0.77836  0.74509  0.49205  1.0000
  C   C28       1.0  0.22166  0.25491  0.50794  1.0000
  C   C29       1.0  0.68679  0.22695  0.53896  1.0000
  C   C30       1.0  0.31322  0.77305  0.46104  1.0000
  C   C31       1.0  0.46284  0.06117  0.76757  1.0000
  C   C32       1.0  0.53716  0.93881  0.23242  1.0000
  C   C33       1.0  0.42895  0.07734  0.86830  1.0000
  C   C34       1.0  0.57105  0.92265  0.13170  1.0000
  C   C35       1.0  0.51192  0.99042  0.94535  1.0000
  C   C36       1.0  0.48808  0.00957  0.05465  1.0000
  C   C37       1.0  0.61750  0.88315  0.91212  1.0000
  C   C38       1.0  0.38249  0.11683  0.08788  1.0000
  C   C39       1.0  0.64354  0.87203  0.80984  1.0000
  C   C40       1.0  0.35646  0.12795  0.19016  1.0000
  N   N1        1.0  0.57332  0.96225  0.73848  1.0000
  N   N2        1.0  0.42668  0.03773  0.26152  1.0000
  O   O1        1.0  0.95800  0.19843  0.85897  1.0000
  O   O2        1.0  0.04200  0.80158  0.14102  1.0000
  O   O3        1.0  0.76685  0.37654  0.81416  1.0000
  O   O4        1.0  0.23314  0.62347  0.18584  1.0000
  O   O5        1.0  0.71444  0.76515  0.57747  1.0000
  O   O6        1.0  0.28558  0.23485  0.42252  1.0000
  O   O7        1.0  0.83454  0.84604  0.44284  1.0000
  O   O8        1.0  0.16547  0.15396  0.55715  1.0000
  O   O9        1.0  0.64298  0.10020  0.49446  1.0000
  O   O10       1.0  0.35704  0.89979  0.50555  1.0000
  O   O11       1.0  0.69391  0.24698  0.63583  1.0000
  O   O12       1.0  0.30606  0.75303  0.36418  1.0000
  O   O13       1.0  0.96679  0.02969  0.68477  1.0000
  O   O14       1.0  0.03322  0.97033  0.31523  1.0000
