data_image0
_chemical_formula_structural       Li4H48C28S4N4O12
_chemical_formula_sum              "Li4 H48 C28 S4 N4 O12"
_cell_length_a       8.9844
_cell_length_b       9.86561
_cell_length_c       10.7899
_cell_angle_alpha    90.0002
_cell_angle_beta     92.9201
_cell_angle_gamma    90.0001

_space_group_name_H-M_alt    "P 1"
_space_group_IT_number       1

loop_
  _space_group_symop_operation_xyz
  'x, y, z'

loop_
  _atom_site_type_symbol
  _atom_site_label
  _atom_site_symmetry_multiplicity
  _atom_site_fract_x
  _atom_site_fract_y
  _atom_site_fract_z
  _atom_site_occupancy
  Li  Li1       1.0  0.15844  0.08558  0.17389  1.0000
  Li  Li2       1.0  0.15844  0.41442  0.67389  1.0000
  Li  Li3       1.0  0.84156  0.91442  0.82611  1.0000
  Li  Li4       1.0  0.84156  0.58558  0.32611  1.0000
  H   H1        1.0  0.90428  0.23929  0.81829  1.0000
  H   H2        1.0  0.90428  0.26072  0.31829  1.0000
  H   H3        1.0  0.09572  0.76071  0.18171  1.0000
  H   H4        1.0  0.09572  0.73929  0.68170  1.0000
  H   H5        1.0  0.01227  0.32409  0.93927  1.0000
  H   H6        1.0  0.01227  0.17591  0.43927  1.0000
  H   H7        1.0  0.98773  0.67591  0.06073  1.0000
  H   H8        1.0  0.98773  0.82409  0.56073  1.0000
  H   H9        1.0  0.06353  0.15572  0.89259  1.0000
  H   H10       1.0  0.06353  0.34429  0.39259  1.0000
  H   H11       1.0  0.93647  0.84428  0.10741  1.0000
  H   H12       1.0  0.93647  0.65572  0.60741  1.0000
  H   H13       1.0  0.49895  0.22435  0.21472  1.0000
  H   H14       1.0  0.49895  0.27565  0.71472  1.0000
  H   H15       1.0  0.50105  0.77565  0.78528  1.0000
  H   H16       1.0  0.50105  0.72436  0.28528  1.0000
  H   H17       1.0  0.39293  0.18821  0.34717  1.0000
  H   H18       1.0  0.39292  0.31179  0.84717  1.0000
  H   H19       1.0  0.60708  0.81179  0.65283  1.0000
  H   H20       1.0  0.60708  0.68821  0.15283  1.0000
  H   H21       1.0  0.53977  0.43370  0.33038  1.0000
  H   H22       1.0  0.53977  0.06631  0.83038  1.0000
  H   H23       1.0  0.46023  0.56631  0.66962  1.0000
  H   H24       1.0  0.46023  0.93370  0.16962  1.0000
  H   H25       1.0  0.35791  0.42907  0.38826  1.0000
  H   H26       1.0  0.35791  0.07094  0.88826  1.0000
  H   H27       1.0  0.64209  0.57094  0.61174  1.0000
  H   H28       1.0  0.64209  0.92906  0.11174  1.0000
  H   H29       1.0  0.31815  0.58197  0.21251  1.0000
  H   H30       1.0  0.31815  0.91803  0.71251  1.0000
  H   H31       1.0  0.68185  0.41803  0.78749  1.0000
  H   H32       1.0  0.68185  0.08198  0.28749  1.0000
  H   H33       1.0  0.44239  0.48825  0.12184  1.0000
  H   H34       1.0  0.44239  0.01175  0.62184  1.0000
  H   H35       1.0  0.55761  0.51175  0.87816  1.0000
  H   H36       1.0  0.55761  0.98825  0.37816  1.0000
  H   H37       1.0  0.12384  0.41694  0.18254  1.0000
  H   H38       1.0  0.12384  0.08306  0.68254  1.0000
  H   H39       1.0  0.87616  0.58307  0.81746  1.0000
  H   H40       1.0  0.87616  0.91694  0.31746  1.0000
  H   H41       1.0  0.21897  0.38332  0.04398  1.0000
  H   H42       1.0  0.21897  0.11668  0.54398  1.0000
  H   H43       1.0  0.78103  0.61668  0.95602  1.0000
  H   H44       1.0  0.78103  0.88332  0.45602  1.0000
  H   H45       1.0  0.61429  0.25529  0.99435  1.0000
  H   H46       1.0  0.61429  0.24471  0.49435  1.0000
  H   H47       1.0  0.38571  0.74471  0.00564  1.0000
  H   H48       1.0  0.38570  0.75529  0.50564  1.0000
  C   C1        1.0  0.71859  0.26566  0.04886  1.0000
  C   C2        1.0  0.71860  0.23434  0.54886  1.0000
  C   C3        1.0  0.28140  0.73434  0.95114  1.0000
  C   C4        1.0  0.28140  0.76566  0.45114  1.0000
  C   C5        1.0  0.75838  0.38121  0.11382  1.0000
  C   C6        1.0  0.75837  0.11879  0.61382  1.0000
  C   C7        1.0  0.24163  0.61879  0.88618  1.0000
  C   C8        1.0  0.24163  0.88121  0.38618  1.0000
  C   C9        1.0  0.97077  0.22581  0.90519  1.0000
  C   C10       1.0  0.97077  0.27418  0.40519  1.0000
  C   C11       1.0  0.02923  0.77418  0.09481  1.0000
  C   C12       1.0  0.02923  0.72581  0.59481  1.0000
  C   C13       1.0  0.40595  0.25864  0.26960  1.0000
  C   C14       1.0  0.40595  0.24136  0.76960  1.0000
  C   C15       1.0  0.59405  0.74136  0.73040  1.0000
  C   C16       1.0  0.59405  0.75864  0.23040  1.0000
  C   C17       1.0  0.42323  0.40637  0.30755  1.0000
  C   C18       1.0  0.42323  0.09363  0.80756  1.0000
  C   C19       1.0  0.57677  0.59363  0.69245  1.0000
  C   C20       1.0  0.57677  0.90637  0.19245  1.0000
  C   C21       1.0  0.35815  0.47988  0.19190  1.0000
  C   C22       1.0  0.35815  0.02012  0.69190  1.0000
  C   C23       1.0  0.64185  0.52012  0.80810  1.0000
  C   C24       1.0  0.64185  0.97988  0.30810  1.0000
  C   C25       1.0  0.23111  0.38730  0.14572  1.0000
  C   C26       1.0  0.23111  0.11270  0.64572  1.0000
  C   C27       1.0  0.76889  0.61271  0.85428  1.0000
  C   C28       1.0  0.76889  0.88730  0.35428  1.0000
  S   S1        1.0  0.85529  0.15555  0.01819  1.0000
  S   S2        1.0  0.85530  0.34444  0.51820  1.0000
  S   S3        1.0  0.14471  0.84444  0.98181  1.0000
  S   S4        1.0  0.14471  0.65555  0.48181  1.0000
  N   N1        1.0  0.79759  0.47788  0.17133  1.0000
  N   N2        1.0  0.79759  0.02212  0.67133  1.0000
  N   N3        1.0  0.20240  0.52212  0.82867  1.0000
  N   N4        1.0  0.20240  0.97788  0.32867  1.0000
  O   O1        1.0  0.95336  0.13568  0.13014  1.0000
  O   O2        1.0  0.95336  0.36431  0.63014  1.0000
  O   O3        1.0  0.04664  0.86431  0.86987  1.0000
  O   O4        1.0  0.04664  0.63568  0.36986  1.0000
  O   O5        1.0  0.78643  0.03314  0.96306  1.0000
  O   O6        1.0  0.78643  0.46686  0.46306  1.0000
  O   O7        1.0  0.21357  0.96686  0.03694  1.0000
  O   O8        1.0  0.21356  0.53314  0.53694  1.0000
  O   O9        1.0  0.26894  0.25229  0.19210  1.0000
  O   O10       1.0  0.26894  0.24771  0.69210  1.0000
  O   O11       1.0  0.73106  0.74771  0.80790  1.0000
  O   O12       1.0  0.73106  0.75229  0.30790  1.0000
