data_image0
_chemical_formula_structural       Cd3H18C22Br4N12O2
_chemical_formula_sum              "Cd3 H18 C22 Br4 N12 O2"
_cell_length_a       7.36225
_cell_length_b       7.95568
_cell_length_c       12.8702
_cell_angle_alpha    89.0543
_cell_angle_beta     89.0943
_cell_angle_gamma    69.6488

_space_group_name_H-M_alt    "P 1"
_space_group_IT_number       1

loop_
  _space_group_symop_operation_xyz
  'x, y, z'

loop_
  _atom_site_type_symbol
  _atom_site_label
  _atom_site_symmetry_multiplicity
  _atom_site_fract_x
  _atom_site_fract_y
  _atom_site_fract_z
  _atom_site_occupancy
  Cd  Cd1       1.0  0.50001  0.00000  0.00000  1.0000
  Cd  Cd2       1.0  0.64008  0.70895  0.26185  1.0000
  Cd  Cd3       1.0  0.35992  0.29105  0.73815  1.0000
  H   H1        1.0  0.74166  0.42780  0.05994  1.0000
  H   H2        1.0  0.25835  0.57220  0.94006  1.0000
  H   H3        1.0  0.03376  0.18559  0.98175  1.0000
  H   H4        1.0  0.96625  0.81441  0.01825  1.0000
  H   H5        1.0  0.39182  0.29746  0.19588  1.0000
  H   H6        1.0  0.60818  0.70254  0.80412  1.0000
  H   H7        1.0  0.03040  0.76819  0.65047  1.0000
  H   H8        1.0  0.96959  0.23181  0.34952  1.0000
  H   H9        1.0  0.78928  0.00631  0.75634  1.0000
  H   H10       1.0  0.21072  0.99369  0.24366  1.0000
  H   H11       1.0  0.47899  0.24398  0.49520  1.0000
  H   H12       1.0  0.52100  0.75602  0.50480  1.0000
  H   H13       1.0  0.70509  0.01910  0.37867  1.0000
  H   H14       1.0  0.29491  0.98090  0.62133  1.0000
  H   H15       1.0  0.49502  0.45505  0.36147  1.0000
  H   H16       1.0  0.50497  0.54496  0.63853  1.0000
  H   H17       1.0  0.69162  0.42966  0.42442  1.0000
  H   H18       1.0  0.30838  0.57034  0.57558  1.0000
  C   C1        1.0  0.88692  0.39666  0.09100  1.0000
  C   C2        1.0  0.11309  0.60333  0.90900  1.0000
  C   C3        1.0  0.04711  0.26513  0.04750  1.0000
  C   C4        1.0  0.95290  0.73487  0.95249  1.0000
  C   C5        1.0  0.24545  0.32660  0.16693  1.0000
  C   C6        1.0  0.75455  0.67339  0.83307  1.0000
  C   C7        1.0  0.08292  0.45299  0.21451  1.0000
  C   C8        1.0  0.91708  0.54701  0.78549  1.0000
  C   C9        1.0  0.08965  0.54468  0.31087  1.0000
  C   C10       1.0  0.91035  0.45531  0.68914  1.0000
  C   C11       1.0  0.99420  0.71766  0.44017  1.0000
  C   C12       1.0  0.00579  0.28234  0.55983  1.0000
  C   C13       1.0  0.87605  0.86332  0.50611  1.0000
  C   C14       1.0  0.12395  0.13668  0.49389  1.0000
  C   C15       1.0  0.90650  0.86755  0.61335  1.0000
  C   C16       1.0  0.09349  0.13246  0.38665  1.0000
  C   C17       1.0  0.77384  0.99950  0.67254  1.0000
  C   C18       1.0  0.22616  0.00050  0.32746  1.0000
  C   C19       1.0  0.60066  0.13445  0.52733  1.0000
  C   C20       1.0  0.39934  0.86555  0.47267  1.0000
  C   C21       1.0  0.72597  0.00719  0.46246  1.0000
  C   C22       1.0  0.27402  0.99281  0.53754  1.0000
  Br  Br1       1.0  0.72137  0.00674  0.16678  1.0000
  Br  Br2       1.0  0.27865  0.99326  0.83323  1.0000
  Br  Br3       1.0  0.39570  0.72656  0.10111  1.0000
  Br  Br4       1.0  0.60431  0.27346  0.89888  1.0000
  N   N1        1.0  0.90556  0.48904  0.17332  1.0000
  N   N2        1.0  0.09444  0.51096  0.82668  1.0000
  N   N3        1.0  0.22557  0.23367  0.08474  1.0000
  N   N4        1.0  0.77443  0.76633  0.91526  1.0000
  N   N5        1.0  0.24072  0.50214  0.37664  1.0000
  N   N6        1.0  0.75927  0.49786  0.62336  1.0000
  N   N7        1.0  0.17857  0.61089  0.45959  1.0000
  N   N8        1.0  0.82143  0.38911  0.54041  1.0000
  N   N9        1.0  0.93242  0.67738  0.34830  1.0000
  N   N10       1.0  0.06757  0.32262  0.65170  1.0000
  N   N11       1.0  0.61757  0.12631  0.63127  1.0000
  N   N12       1.0  0.38243  0.87369  0.36873  1.0000
  O   O1        1.0  0.63171  0.45105  0.35338  1.0000
  O   O2        1.0  0.36829  0.54895  0.64661  1.0000
