data_image0
_chemical_formula_structural       NiH28C36Br4N8O4
_chemical_formula_sum              "Ni1 H28 C36 Br4 N8 O4"
_cell_length_a       8.77499
_cell_length_b       9.41578
_cell_length_c       12.3093
_cell_angle_alpha    68.0884
_cell_angle_beta     75.5774
_cell_angle_gamma    89.1212

_space_group_name_H-M_alt    "P 1"
_space_group_IT_number       1

loop_
  _space_group_symop_operation_xyz
  'x, y, z'

loop_
  _atom_site_type_symbol
  _atom_site_label
  _atom_site_symmetry_multiplicity
  _atom_site_fract_x
  _atom_site_fract_y
  _atom_site_fract_z
  _atom_site_occupancy
  Ni  Ni1       1.0  0.50000  0.00000  1.00000  1.0000
  H   H1        1.0  0.60377  0.87437  0.80191  1.0000
  H   H2        1.0  0.39622  0.12563  0.19809  1.0000
  H   H3        1.0  0.62838  0.69934  0.16605  1.0000
  H   H4        1.0  0.37162  0.30068  0.83395  1.0000
  H   H5        1.0  0.77653  0.50580  0.05331  1.0000
  H   H6        1.0  0.22346  0.49421  0.94670  1.0000
  H   H7        1.0  0.73426  0.68108  0.72591  1.0000
  H   H8        1.0  0.26573  0.31892  0.27409  1.0000
  H   H9        1.0  0.73043  0.49512  0.83700  1.0000
  H   H10       1.0  0.26957  0.50488  0.16301  1.0000
  H   H11       1.0  0.98205  0.79772  0.84542  1.0000
  H   H12       1.0  0.01795  0.20227  0.15459  1.0000
  H   H13       1.0  0.27412  0.82225  0.78322  1.0000
  H   H14       1.0  0.72588  0.17774  0.21679  1.0000
  H   H15       1.0  0.41771  0.66778  0.66827  1.0000
  H   H16       1.0  0.58229  0.33222  0.33173  1.0000
  H   H17       1.0  0.26831  0.49233  0.61803  1.0000
  H   H18       1.0  0.73169  0.50766  0.38198  1.0000
  H   H19       1.0  0.85637  0.48154  0.63381  1.0000
  H   H20       1.0  0.14364  0.51847  0.36619  1.0000
  H   H21       1.0  0.03426  0.39216  0.61147  1.0000
  H   H22       1.0  0.96574  0.60784  0.38853  1.0000
  H   H23       1.0  0.65135  0.26906  0.75035  1.0000
  H   H24       1.0  0.34865  0.73095  0.24964  1.0000
  H   H25       1.0  0.05671  0.25386  0.88393  1.0000
  H   H26       1.0  0.94329  0.74612  0.11607  1.0000
  H   H27       1.0  0.82287  0.02745  0.05665  1.0000
  H   H28       1.0  0.17713  0.97255  0.94335  1.0000
  C   C1        1.0  0.47959  0.15547  0.67129  1.0000
  C   C2        1.0  0.52043  0.84454  0.32869  1.0000
  C   C3        1.0  0.49393  0.08095  0.57801  1.0000
  C   C4        1.0  0.50608  0.91904  0.42198  1.0000
  C   C5        1.0  0.36443  0.06547  0.53524  1.0000
  C   C6        1.0  0.63557  0.93452  0.46476  1.0000
  C   C7        1.0  0.36868  0.98433  0.45987  1.0000
  C   C8        1.0  0.63133  0.01567  0.54013  1.0000
  C   C9        1.0  0.63308  0.80162  0.88449  1.0000
  C   C10       1.0  0.36691  0.19838  0.11551  1.0000
  C   C11       1.0  0.64810  0.70635  0.07337  1.0000
  C   C12       1.0  0.35190  0.29367  0.92663  1.0000
  C   C13       1.0  0.71986  0.61025  0.01872  1.0000
  C   C14       1.0  0.28014  0.38975  0.98128  1.0000
  C   C15       1.0  0.77803  0.61505  0.80521  1.0000
  C   C16       1.0  0.22197  0.38495  0.19480  1.0000
  C   C17       1.0  0.95729  0.62919  0.76946  1.0000
  C   C18       1.0  0.04271  0.37081  0.23055  1.0000
  C   C19       1.0  0.04380  0.72914  0.79653  1.0000
  C   C20       1.0  0.95619  0.27086  0.20348  1.0000
  C   C21       1.0  0.20896  0.74303  0.76145  1.0000
  C   C22       1.0  0.79103  0.25697  0.23856  1.0000
  C   C23       1.0  0.28910  0.65754  0.69729  1.0000
  C   C24       1.0  0.71090  0.34245  0.30271  1.0000
  C   C25       1.0  0.20431  0.55835  0.66865  1.0000
  C   C26       1.0  0.79568  0.44165  0.33136  1.0000
  C   C27       1.0  0.03902  0.54305  0.70460  1.0000
  C   C28       1.0  0.96098  0.45695  0.29540  1.0000
  C   C29       1.0  0.95149  0.43073  0.67578  1.0000
  C   C30       1.0  0.04851  0.56927  0.32421  1.0000
  C   C31       1.0  0.72845  0.23189  0.81147  1.0000
  C   C32       1.0  0.27154  0.76812  0.18853  1.0000
  C   C33       1.0  0.93972  0.22076  0.88257  1.0000
  C   C34       1.0  0.06028  0.77924  0.11743  1.0000
  C   C35       1.0  0.82481  0.10939  0.96668  1.0000
  C   C36       1.0  0.17518  0.89061  0.03331  1.0000
  Br  Br1       1.0  0.18354  0.95174  0.41538  1.0000
  Br  Br2       1.0  0.81646  0.04826  0.58462  1.0000
  Br  Br3       1.0  0.17875  0.15744  0.58564  1.0000
  Br  Br4       1.0  0.82125  0.84254  0.41437  1.0000
  N   N1        1.0  0.59594  0.82505  0.98773  1.0000
  N   N2        1.0  0.40405  0.17496  0.01226  1.0000
  N   N3        1.0  0.70950  0.67221  0.89990  1.0000
  N   N4        1.0  0.29049  0.32779  0.10010  1.0000
  N   N5        1.0  0.87692  0.29654  0.78565  1.0000
  N   N6        1.0  0.12308  0.70346  0.21434  1.0000
  N   N7        1.0  0.69473  0.11839  0.92084  1.0000
  N   N8        1.0  0.30526  0.88162  0.07915  1.0000
  O   O1        1.0  0.42919  0.06020  0.77982  1.0000
  O   O2        1.0  0.57085  0.93982  0.22018  1.0000
  O   O3        1.0  0.51823  0.29706  0.63327  1.0000
  O   O4        1.0  0.48179  0.70296  0.36669  1.0000
