data_image0
_chemical_formula_structural       Mn4H24C36N8O20
_chemical_formula_sum              "Mn4 H24 C36 N8 O20"
_cell_length_a       6.9776
_cell_length_b       9.40917
_cell_length_c       14.5193
_cell_angle_alpha    104.199
_cell_angle_beta     90.0001
_cell_angle_gamma    90.0001

_space_group_name_H-M_alt    "P 1"
_space_group_IT_number       1

loop_
  _space_group_symop_operation_xyz
  'x, y, z'

loop_
  _atom_site_type_symbol
  _atom_site_label
  _atom_site_symmetry_multiplicity
  _atom_site_fract_x
  _atom_site_fract_y
  _atom_site_fract_z
  _atom_site_occupancy
  Mn  Mn1       1.0  0.81119  0.38894  0.02879  1.0000
  Mn  Mn2       1.0  0.31119  0.61106  0.47121  1.0000
  Mn  Mn3       1.0  0.18881  0.61105  0.97121  1.0000
  Mn  Mn4       1.0  0.68881  0.38895  0.52879  1.0000
  H   H1        1.0  0.09825  0.54379  0.15146  1.0000
  H   H2        1.0  0.59825  0.45621  0.34854  1.0000
  H   H3        1.0  0.90174  0.45621  0.84854  1.0000
  H   H4        1.0  0.40175  0.54379  0.65146  1.0000
  H   H5        1.0  0.98869  0.43157  0.20229  1.0000
  H   H6        1.0  0.48869  0.56843  0.29771  1.0000
  H   H7        1.0  0.01131  0.56842  0.79771  1.0000
  H   H8        1.0  0.51131  0.43158  0.70229  1.0000
  H   H9        1.0  0.77461  0.73484  0.78984  1.0000
  H   H10       1.0  0.27462  0.26516  0.71016  1.0000
  H   H11       1.0  0.22538  0.26516  0.21016  1.0000
  H   H12       1.0  0.72539  0.73485  0.28984  1.0000
  H   H13       1.0  0.75414  0.04072  0.79683  1.0000
  H   H14       1.0  0.25414  0.95928  0.70317  1.0000
  H   H15       1.0  0.24586  0.95928  0.20317  1.0000
  H   H16       1.0  0.74586  0.04073  0.29683  1.0000
  H   H17       1.0  0.13293  0.99291  0.96399  1.0000
  H   H18       1.0  0.63294  0.00709  0.53601  1.0000
  H   H19       1.0  0.86707  0.00709  0.03601  1.0000
  H   H20       1.0  0.36707  0.99291  0.46399  1.0000
  H   H21       1.0  0.57459  0.55761  0.85925  1.0000
  H   H22       1.0  0.07460  0.44239  0.64075  1.0000
  H   H23       1.0  0.42541  0.44239  0.14075  1.0000
  H   H24       1.0  0.92541  0.55761  0.35925  1.0000
  C   C1        1.0  0.56101  0.28761  0.83812  1.0000
  C   C2        1.0  0.06101  0.71239  0.66188  1.0000
  C   C3        1.0  0.43899  0.71239  0.16188  1.0000
  C   C4        1.0  0.93899  0.28762  0.33812  1.0000
  C   C5        1.0  0.49808  0.14950  0.86371  1.0000
  C   C6        1.0  0.99809  0.85050  0.63629  1.0000
  C   C7        1.0  0.50191  0.85050  0.13629  1.0000
  C   C8        1.0  0.00192  0.14950  0.36371  1.0000
  C   C9        1.0  0.61910  0.02978  0.83219  1.0000
  C   C10       1.0  0.11911  0.97022  0.66781  1.0000
  C   C11       1.0  0.38089  0.97021  0.16781  1.0000
  C   C12       1.0  0.88089  0.02979  0.33219  1.0000
  C   C13       1.0  0.56054  0.89689  0.84877  1.0000
  C   C14       1.0  0.06055  0.10310  0.65123  1.0000
  C   C15       1.0  0.43945  0.10310  0.15122  1.0000
  C   C16       1.0  0.93945  0.89690  0.34877  1.0000
  C   C17       1.0  0.38686  0.88054  0.89610  1.0000
  C   C18       1.0  0.88687  0.11945  0.60390  1.0000
  C   C19       1.0  0.61313  0.11945  0.10390  1.0000
  C   C20       1.0  0.11314  0.88055  0.39610  1.0000
  C   C21       1.0  0.26622  0.00113  0.92670  1.0000
  C   C22       1.0  0.76622  0.99887  0.57330  1.0000
  C   C23       1.0  0.73378  0.99887  0.07329  1.0000
  C   C24       1.0  0.23378  0.00113  0.42670  1.0000
  C   C25       1.0  0.32273  0.13622  0.91064  1.0000
  C   C26       1.0  0.82272  0.86378  0.58936  1.0000
  C   C27       1.0  0.67728  0.86378  0.08936  1.0000
  C   C28       1.0  0.17728  0.13622  0.41064  1.0000
  C   C29       1.0  0.20151  0.26892  0.94847  1.0000
  C   C30       1.0  0.70151  0.73108  0.55153  1.0000
  C   C31       1.0  0.79849  0.73108  0.05153  1.0000
  C   C32       1.0  0.29849  0.26893  0.44847  1.0000
  C   C33       1.0  0.53540  0.67043  0.86320  1.0000
  C   C34       1.0  0.03540  0.32957  0.63680  1.0000
  C   C35       1.0  0.46460  0.32957  0.13680  1.0000
  C   C36       1.0  0.96460  0.67043  0.36320  1.0000
  N   N1        1.0  0.64862  0.76219  0.82908  1.0000
  N   N2        1.0  0.14862  0.23781  0.67092  1.0000
  N   N3        1.0  0.35138  0.23781  0.17092  1.0000
  N   N4        1.0  0.85138  0.76220  0.32908  1.0000
  N   N5        1.0  0.37633  0.73533  0.90433  1.0000
  N   N6        1.0  0.87634  0.26467  0.59567  1.0000
  N   N7        1.0  0.62366  0.26467  0.09567  1.0000
  N   N8        1.0  0.12366  0.73534  0.40433  1.0000
  O   O1        1.0  0.70431  0.35821  0.88141  1.0000
  O   O2        1.0  0.20430  0.64178  0.61859  1.0000
  O   O3        1.0  0.29570  0.64178  0.11859  1.0000
  O   O4        1.0  0.79570  0.35822  0.38141  1.0000
  O   O5        1.0  0.47861  0.31917  0.76784  1.0000
  O   O6        1.0  0.97861  0.68083  0.73216  1.0000
  O   O7        1.0  0.52139  0.68083  0.23216  1.0000
  O   O8        1.0  0.02139  0.31917  0.26784  1.0000
  O   O9        1.0  0.28051  0.39419  0.95901  1.0000
  O   O10       1.0  0.78051  0.60581  0.54099  1.0000
  O   O11       1.0  0.71949  0.60581  0.04099  1.0000
  O   O12       1.0  0.21948  0.39419  0.45901  1.0000
  O   O13       1.0  0.02828  0.24760  0.96966  1.0000
  O   O14       1.0  0.52828  0.75240  0.53034  1.0000
  O   O15       1.0  0.97172  0.75240  0.03034  1.0000
  O   O16       1.0  0.47172  0.24761  0.46966  1.0000
  O   O17       1.0  0.97665  0.49064  0.15376  1.0000
  O   O18       1.0  0.47665  0.50936  0.34624  1.0000
  O   O19       1.0  0.02335  0.50936  0.84624  1.0000
  O   O20       1.0  0.52335  0.49064  0.65376  1.0000
