data_image0
_chemical_formula_structural       Zn3H8C16N2O14
_chemical_formula_sum              "Zn3 H8 C16 N2 O14"
_cell_length_a       6.21393
_cell_length_b       8.88555
_cell_length_c       8.88549
_cell_angle_alpha    70.4965
_cell_angle_beta     88.0725
_cell_angle_gamma    88.0734

_space_group_name_H-M_alt    "P 1"
_space_group_IT_number       1

loop_
  _space_group_symop_operation_xyz
  'x, y, z'

loop_
  _atom_site_type_symbol
  _atom_site_label
  _atom_site_symmetry_multiplicity
  _atom_site_fract_x
  _atom_site_fract_y
  _atom_site_fract_z
  _atom_site_occupancy
  Zn  Zn1       1.0  0.50001  0.14532  0.85468  1.0000
  Zn  Zn2       1.0  0.49999  0.85468  0.14532  1.0000
  Zn  Zn3       1.0  1.00000  0.00000  1.00000  1.0000
  H   H1        1.0  0.29487  0.11692  0.11692  1.0000
  H   H2        1.0  0.70512  0.88308  0.88308  1.0000
  H   H3        1.0  0.77176  0.09641  0.51766  1.0000
  H   H4        1.0  0.77175  0.51763  0.09643  1.0000
  H   H5        1.0  0.22825  0.90358  0.48235  1.0000
  H   H6        1.0  0.22824  0.48237  0.90357  1.0000
  H   H7        1.0  0.28471  0.43116  0.43117  1.0000
  H   H8        1.0  0.71529  0.56883  0.56883  1.0000
  C   C1        1.0  0.14582  0.16079  0.64619  1.0000
  C   C2        1.0  0.14580  0.64619  0.16079  1.0000
  C   C3        1.0  0.85420  0.83921  0.35380  1.0000
  C   C4        1.0  0.85419  0.35382  0.83921  1.0000
  C   C5        1.0  0.04112  0.25324  0.49129  1.0000
  C   C6        1.0  0.04110  0.49129  0.25324  1.0000
  C   C7        1.0  0.95889  0.74677  0.50871  1.0000
  C   C8        1.0  0.95889  0.50871  0.74676  1.0000
  C   C9        1.0  0.84966  0.20546  0.44491  1.0000
  C   C10       1.0  0.84966  0.44490  0.20548  1.0000
  C   C11       1.0  0.15034  0.79454  0.55509  1.0000
  C   C12       1.0  0.15033  0.55511  0.79453  1.0000
  C   C13       1.0  0.76037  0.30139  0.30142  1.0000
  C   C14       1.0  0.23962  0.69860  0.69859  1.0000
  C   C15       1.0  0.13602  0.39425  0.39425  1.0000
  C   C16       1.0  0.86398  0.60576  0.60575  1.0000
  N   N1        1.0  0.56695  0.24740  0.24741  1.0000
  N   N2        1.0  0.43305  0.75261  0.75259  1.0000
  O   O1        1.0  0.31087  0.04946  0.04945  1.0000
  O   O2        1.0  0.68913  0.95054  0.95054  1.0000
  O   O3        1.0  0.33226  0.20988  0.66279  1.0000
  O   O4        1.0  0.33225  0.66279  0.20988  1.0000
  O   O5        1.0  0.66775  0.79012  0.33720  1.0000
  O   O6        1.0  0.66775  0.33721  0.79012  1.0000
  O   O7        1.0  0.04653  0.04808  0.74752  1.0000
  O   O8        1.0  0.04651  0.74752  0.04809  1.0000
  O   O9        1.0  0.95349  0.95191  0.25248  1.0000
  O   O10       1.0  0.95347  0.25248  0.95191  1.0000
  O   O11       1.0  0.48947  0.11830  0.33167  1.0000
  O   O12       1.0  0.48946  0.33166  0.11834  1.0000
  O   O13       1.0  0.51053  0.88169  0.66833  1.0000
  O   O14       1.0  0.51054  0.66834  0.88166  1.0000
