data_image0
_chemical_formula_structural       Zn2H20C30S2N6O8
_chemical_formula_sum              "Zn2 H20 C30 S2 N6 O8"
_cell_length_a       8.43994
_cell_length_b       9.46806
_cell_length_c       10.139
_cell_angle_alpha    63.0519
_cell_angle_beta     72.1902
_cell_angle_gamma    67.118

_space_group_name_H-M_alt    "P 1"
_space_group_IT_number       1

loop_
  _space_group_symop_operation_xyz
  'x, y, z'

loop_
  _atom_site_type_symbol
  _atom_site_label
  _atom_site_symmetry_multiplicity
  _atom_site_fract_x
  _atom_site_fract_y
  _atom_site_fract_z
  _atom_site_occupancy
  Zn  Zn1       1.0  0.90164  0.63523  0.64130  1.0000
  Zn  Zn2       1.0  0.09836  0.36477  0.35870  1.0000
  H   H1        1.0  0.69568  0.57307  0.47373  1.0000
  H   H2        1.0  0.30432  0.42693  0.52627  1.0000
  H   H3        1.0  0.39343  0.70109  0.39902  1.0000
  H   H4        1.0  0.60657  0.29891  0.60098  1.0000
  H   H5        1.0  0.17476  0.90583  0.50413  1.0000
  H   H6        1.0  0.82524  0.09417  0.49587  1.0000
  H   H7        1.0  0.25488  0.97713  0.67925  1.0000
  H   H8        1.0  0.74512  0.02287  0.32075  1.0000
  H   H9        1.0  0.33722  0.98086  0.85710  1.0000
  H   H10       1.0  0.66278  0.01914  0.14290  1.0000
  H   H11       1.0  0.80182  0.90424  0.01221  1.0000
  H   H12       1.0  0.19818  0.09576  0.98779  1.0000
  H   H13       1.0  0.06625  0.78350  0.00673  1.0000
  H   H14       1.0  0.93375  0.21650  0.99326  1.0000
  H   H15       1.0  0.36204  0.58897  0.02379  1.0000
  H   H16       1.0  0.63796  0.41103  0.97621  1.0000
  H   H17       1.0  0.47923  0.40086  0.87494  1.0000
  H   H18       1.0  0.52077  0.59914  0.12506  1.0000
  H   H19       1.0  0.27945  0.41428  0.73063  1.0000
  H   H20       1.0  0.72055  0.58572  0.26937  1.0000
  C   C1        1.0  0.59375  0.66470  0.51381  1.0000
  C   C2        1.0  0.40625  0.33530  0.48619  1.0000
  C   C3        1.0  0.42788  0.73446  0.47424  1.0000
  C   C4        1.0  0.57212  0.26554  0.52576  1.0000
  C   C5        1.0  0.30535  0.84949  0.53320  1.0000
  C   C6        1.0  0.69465  0.15051  0.46680  1.0000
  C   C7        1.0  0.35059  0.88973  0.63018  1.0000
  C   C8        1.0  0.64941  0.11027  0.36982  1.0000
  C   C9        1.0  0.52011  0.81464  0.66368  1.0000
  C   C10       1.0  0.47989  0.18536  0.33632  1.0000
  C   C11       1.0  0.58333  0.84786  0.76501  1.0000
  C   C12       1.0  0.41667  0.15214  0.23499  1.0000
  C   C13       1.0  0.47719  0.93365  0.85747  1.0000
  C   C14       1.0  0.52281  0.06635  0.14253  1.0000
  C   C15       1.0  0.55385  0.95634  0.94899  1.0000
  C   C16       1.0  0.44615  0.04366  0.05101  1.0000
  C   C17       1.0  0.73511  0.89085  0.94404  1.0000
  C   C18       1.0  0.26489  0.10915  0.05596  1.0000
  C   C19       1.0  0.83131  0.79965  0.85438  1.0000
  C   C20       1.0  0.16869  0.20035  0.14562  1.0000
  C   C21       1.0  0.01641  0.70115  0.85942  1.0000
  C   C22       1.0  0.98359  0.29885  0.14058  1.0000
  C   C23       1.0  0.11697  0.70070  0.94633  1.0000
  C   C24       1.0  0.88303  0.29930  0.05367  1.0000
  C   C25       1.0  0.28487  0.59123  0.95409  1.0000
  C   C26       1.0  0.71513  0.40877  0.04591  1.0000
  C   C27       1.0  0.34831  0.48728  0.87491  1.0000
  C   C28       1.0  0.65169  0.51272  0.12508  1.0000
  C   C29       1.0  0.23918  0.49612  0.79076  1.0000
  C   C30       1.0  0.76082  0.50389  0.20924  1.0000
  S   S1        1.0  0.94572  0.25536  0.70231  1.0000
  S   S2        1.0  0.05428  0.74464  0.29769  1.0000
  N   N1        1.0  0.63952  0.70524  0.60449  1.0000
  N   N2        1.0  0.36048  0.29475  0.39551  1.0000
  N   N3        1.0  0.75528  0.78294  0.76624  1.0000
  N   N4        1.0  0.24472  0.21706  0.23376  1.0000
  N   N5        1.0  0.07793  0.60045  0.78260  1.0000
  N   N6        1.0  0.92207  0.39955  0.21740  1.0000
  O   O1        1.0  0.75829  0.29083  0.76042  1.0000
  O   O2        1.0  0.24171  0.70917  0.23958  1.0000
  O   O3        1.0  0.00986  0.39918  0.66909  1.0000
  O   O4        1.0  0.99014  0.60082  0.33091  1.0000
  O   O5        1.0  0.05162  0.10519  0.80690  1.0000
  O   O6        1.0  0.94838  0.89481  0.19310  1.0000
  O   O7        1.0  0.02137  0.76479  0.44557  1.0000
  O   O8        1.0  0.97863  0.23521  0.55443  1.0000
