data_image0
_chemical_formula_structural       Mn2H20C30S2N6O8
_chemical_formula_sum              "Mn2 H20 C30 S2 N6 O8"
_cell_length_a       8.4217
_cell_length_b       9.40828
_cell_length_c       10.2975
_cell_angle_alpha    62.8903
_cell_angle_beta     72.5861
_cell_angle_gamma    67.8637

_space_group_name_H-M_alt    "P 1"
_space_group_IT_number       1

loop_
  _space_group_symop_operation_xyz
  'x, y, z'

loop_
  _atom_site_type_symbol
  _atom_site_label
  _atom_site_symmetry_multiplicity
  _atom_site_fract_x
  _atom_site_fract_y
  _atom_site_fract_z
  _atom_site_occupancy
  Mn  Mn1       1.0  0.40370  0.64240  0.13377  1.0000
  Mn  Mn2       1.0  0.59630  0.35760  0.86623  1.0000
  H   H1        1.0  0.18196  0.59136  0.96958  1.0000
  H   H2        1.0  0.81804  0.40864  0.03042  1.0000
  H   H3        1.0  0.87911  0.71888  0.90057  1.0000
  H   H4        1.0  0.12089  0.28112  0.09943  1.0000
  H   H5        1.0  0.66407  0.91779  0.01143  1.0000
  H   H6        1.0  0.33593  0.08221  0.98857  1.0000
  H   H7        1.0  0.74956  0.98008  0.18716  1.0000
  H   H8        1.0  0.25044  0.01992  0.81284  1.0000
  H   H9        1.0  0.83586  0.98137  0.35953  1.0000
  H   H10       1.0  0.16413  0.01862  0.64047  1.0000
  H   H11       1.0  0.30069  0.90037  0.51474  1.0000
  H   H12       1.0  0.69931  0.09963  0.48526  1.0000
  H   H13       1.0  0.56136  0.77972  0.51160  1.0000
  H   H14       1.0  0.43864  0.22028  0.48840  1.0000
  H   H15       1.0  0.85776  0.58982  0.52511  1.0000
  H   H16       1.0  0.14224  0.41018  0.47489  1.0000
  H   H17       1.0  0.97531  0.40861  0.37286  1.0000
  H   H18       1.0  0.02469  0.59139  0.62714  1.0000
  H   H19       1.0  0.77752  0.42578  0.22626  1.0000
  H   H20       1.0  0.22248  0.57422  0.77374  1.0000
  C   C1        1.0  0.08161  0.67924  0.01334  1.0000
  C   C2        1.0  0.91839  0.32076  0.98666  1.0000
  C   C3        1.0  0.91520  0.74926  0.97627  1.0000
  C   C4        1.0  0.08481  0.25073  0.02373  1.0000
  C   C5        1.0  0.79509  0.86027  0.03853  1.0000
  C   C6        1.0  0.20491  0.13973  0.96147  1.0000
  C   C7        1.0  0.84341  0.89576  0.13607  1.0000
  C   C8        1.0  0.15659  0.10424  0.86394  1.0000
  C   C9        1.0  0.01316  0.82028  0.16748  1.0000
  C   C10       1.0  0.98684  0.17972  0.83252  1.0000
  C   C11       1.0  0.07910  0.84895  0.26886  1.0000
  C   C12       1.0  0.92090  0.15104  0.73114  1.0000
  C   C13       1.0  0.97528  0.93361  0.36019  1.0000
  C   C14       1.0  0.02472  0.06639  0.63981  1.0000
  C   C15       1.0  0.05272  0.95569  0.45071  1.0000
  C   C16       1.0  0.94727  0.04431  0.54928  1.0000
  C   C17       1.0  0.23304  0.88827  0.44699  1.0000
  C   C18       1.0  0.76696  0.11173  0.55301  1.0000
  C   C19       1.0  0.32731  0.79851  0.35819  1.0000
  C   C20       1.0  0.67269  0.20149  0.64181  1.0000
  C   C21       1.0  0.51173  0.70216  0.36241  1.0000
  C   C22       1.0  0.48827  0.29784  0.63759  1.0000
  C   C23       1.0  0.61243  0.69980  0.44961  1.0000
  C   C24       1.0  0.38757  0.30020  0.55039  1.0000
  C   C25       1.0  0.78043  0.59302  0.45560  1.0000
  C   C26       1.0  0.21957  0.40698  0.54440  1.0000
  C   C27       1.0  0.84446  0.49312  0.37406  1.0000
  C   C28       1.0  0.15554  0.50688  0.62594  1.0000
  C   C29       1.0  0.73594  0.50371  0.28931  1.0000
  C   C30       1.0  0.26406  0.49629  0.71069  1.0000
  S   S1        1.0  0.44403  0.25141  0.20623  1.0000
  S   S2        1.0  0.55597  0.74859  0.79378  1.0000
  N   N1        1.0  0.13071  0.71467  0.10518  1.0000
  N   N2        1.0  0.86929  0.28533  0.89482  1.0000
  N   N3        1.0  0.25131  0.78277  0.26947  1.0000
  N   N4        1.0  0.74869  0.21723  0.73053  1.0000
  N   N5        1.0  0.57409  0.60557  0.28278  1.0000
  N   N6        1.0  0.42591  0.39443  0.71722  1.0000
  O   O1        1.0  0.25684  0.28988  0.25947  1.0000
  O   O2        1.0  0.74316  0.71012  0.74053  1.0000
  O   O3        1.0  0.50960  0.39909  0.16447  1.0000
  O   O4        1.0  0.49040  0.60091  0.83552  1.0000
  O   O5        1.0  0.54658  0.10471  0.31399  1.0000
  O   O6        1.0  0.45342  0.89529  0.68601  1.0000
  O   O7        1.0  0.51987  0.77669  0.93631  1.0000
  O   O8        1.0  0.48013  0.22331  0.06369  1.0000
