data_image0
_chemical_formula_structural       Zn2Mo2H20C30N6O8
_chemical_formula_sum              "Zn2 Mo2 H20 C30 N6 O8"
_cell_length_a       8.33031
_cell_length_b       9.55625
_cell_length_c       10.6863
_cell_angle_alpha    64.0051
_cell_angle_beta     71.6995
_cell_angle_gamma    69.162

_space_group_name_H-M_alt    "P 1"
_space_group_IT_number       1

loop_
  _space_group_symop_operation_xyz
  'x, y, z'

loop_
  _atom_site_type_symbol
  _atom_site_label
  _atom_site_symmetry_multiplicity
  _atom_site_fract_x
  _atom_site_fract_y
  _atom_site_fract_z
  _atom_site_occupancy
  Zn  Zn1       1.0  0.59296  0.34086  0.35243  1.0000
  Zn  Zn2       1.0  0.40704  0.65914  0.64757  1.0000
  Mo  Mo1       1.0  0.57383  0.74871  0.29627  1.0000
  Mo  Mo2       1.0  0.42617  0.25129  0.70373  1.0000
  H   H1        1.0  0.21714  0.55181  0.28058  1.0000
  H   H2        1.0  0.78287  0.44819  0.71942  1.0000
  H   H3        1.0  0.02819  0.58678  0.12557  1.0000
  H   H4        1.0  0.97182  0.41323  0.87443  1.0000
  H   H5        1.0  0.14594  0.41667  0.96866  1.0000
  H   H6        1.0  0.85406  0.58334  0.03134  1.0000
  H   H7        1.0  0.43922  0.22544  0.98268  1.0000
  H   H8        1.0  0.56078  0.77456  0.01732  1.0000
  H   H9        1.0  0.70137  0.10236  0.97974  1.0000
  H   H10       1.0  0.29863  0.89764  0.02026  1.0000
  H   H11       1.0  0.83834  0.98241  0.86159  1.0000
  H   H12       1.0  0.16166  0.01759  0.13841  1.0000
  H   H13       1.0  0.75715  0.97188  0.69750  1.0000
  H   H14       1.0  0.24285  0.02812  0.30250  1.0000
  H   H15       1.0  0.68021  0.91650  0.51905  1.0000
  H   H16       1.0  0.31979  0.08350  0.48095  1.0000
  H   H17       1.0  0.90494  0.73473  0.39977  1.0000
  H   H18       1.0  0.09506  0.26527  0.60023  1.0000
  H   H19       1.0  0.20567  0.61478  0.46568  1.0000
  H   H20       1.0  0.79433  0.38522  0.53432  1.0000
  C   C1        1.0  0.26132  0.48290  0.21195  1.0000
  C   C2        1.0  0.73868  0.51710  0.78805  1.0000
  C   C3        1.0  0.15668  0.50137  0.12371  1.0000
  C   C4        1.0  0.84332  0.49863  0.87629  1.0000
  C   C5        1.0  0.22148  0.40834  0.03946  1.0000
  C   C6        1.0  0.77852  0.59166  0.96054  1.0000
  C   C7        1.0  0.38708  0.30196  0.04497  1.0000
  C   C8        1.0  0.61292  0.69804  0.95503  1.0000
  C   C9        1.0  0.48568  0.29483  0.13276  1.0000
  C   C10       1.0  0.51432  0.70517  0.86724  1.0000
  C   C11       1.0  0.67006  0.20039  0.13504  1.0000
  C   C12       1.0  0.32994  0.79961  0.86496  1.0000
  C   C13       1.0  0.76661  0.11368  0.04736  1.0000
  C   C14       1.0  0.23339  0.88632  0.95264  1.0000
  C   C15       1.0  0.94636  0.04496  0.04708  1.0000
  C   C16       1.0  0.05364  0.95504  0.95292  1.0000
  C   C17       1.0  0.97788  0.93466  0.86342  1.0000
  C   C18       1.0  0.02212  0.06534  0.13658  1.0000
  C   C19       1.0  0.08429  0.85123  0.77466  1.0000
  C   C20       1.0  0.91571  0.14877  0.22534  1.0000
  C   C21       1.0  0.02299  0.82358  0.67308  1.0000
  C   C22       1.0  0.97701  0.17642  0.32692  1.0000
  C   C23       1.0  0.85400  0.89424  0.64357  1.0000
  C   C24       1.0  0.14600  0.10576  0.35642  1.0000
  C   C25       1.0  0.81083  0.86272  0.54433  1.0000
  C   C26       1.0  0.18917  0.13727  0.45567  1.0000
  C   C27       1.0  0.93576  0.76082  0.47814  1.0000
  C   C28       1.0  0.06424  0.23917  0.52186  1.0000
  C   C29       1.0  0.10125  0.69455  0.51385  1.0000
  C   C30       1.0  0.89875  0.30545  0.48615  1.0000
  N   N1        1.0  0.42143  0.38307  0.21589  1.0000
  N   N2        1.0  0.57857  0.61693  0.78411  1.0000
  N   N3        1.0  0.25536  0.78708  0.77728  1.0000
  N   N4        1.0  0.74464  0.21292  0.22272  1.0000
  N   N5        1.0  0.14390  0.72577  0.60822  1.0000
  N   N6        1.0  0.85610  0.27423  0.39178  1.0000
  O   O1        1.0  0.52178  0.78404  0.45986  1.0000
  O   O2        1.0  0.47822  0.21596  0.54015  1.0000
  O   O3        1.0  0.44758  0.90903  0.17538  1.0000
  O   O4        1.0  0.55242  0.09097  0.82462  1.0000
  O   O5        1.0  0.52003  0.56721  0.33124  1.0000
  O   O6        1.0  0.47997  0.43279  0.66876  1.0000
  O   O7        1.0  0.79681  0.73258  0.22364  1.0000
  O   O8        1.0  0.20318  0.26742  0.77636  1.0000
