data_image0
_chemical_formula_structural       Cu2H24C36S2N6O8
_chemical_formula_sum              "Cu2 H24 C36 S2 N6 O8"
_cell_length_a       8.30996
_cell_length_b       9.86097
_cell_length_c       10.8404
_cell_angle_alpha    91.7303
_cell_angle_beta     103.006
_cell_angle_gamma    114.893

_space_group_name_H-M_alt    "P 1"
_space_group_IT_number       1

loop_
  _space_group_symop_operation_xyz
  'x, y, z'

loop_
  _atom_site_type_symbol
  _atom_site_label
  _atom_site_symmetry_multiplicity
  _atom_site_fract_x
  _atom_site_fract_y
  _atom_site_fract_z
  _atom_site_occupancy
  Cu  Cu1       1.0  0.84500  0.79136  0.34575  1.0000
  Cu  Cu2       1.0  0.15500  0.20863  0.65425  1.0000
  H   H1        1.0  0.59871  0.95655  0.29638  1.0000
  H   H2        1.0  0.40128  0.04345  0.70361  1.0000
  H   H3        1.0  0.26298  0.88114  0.20040  1.0000
  H   H4        1.0  0.73702  0.11886  0.79959  1.0000
  H   H5        1.0  0.06316  0.61396  0.09042  1.0000
  H   H6        1.0  0.93683  0.38604  0.90957  1.0000
  H   H7        1.0  0.20074  0.43062  0.09642  1.0000
  H   H8        1.0  0.79926  0.56939  0.90357  1.0000
  H   H9        1.0  0.36069  0.30302  0.08647  1.0000
  H   H10       1.0  0.63931  0.69699  0.91353  1.0000
  H   H11       1.0  0.89571  0.31538  0.24535  1.0000
  H   H12       1.0  0.10429  0.68462  0.75465  1.0000
  H   H13       1.0  0.15507  0.44682  0.38538  1.0000
  H   H14       1.0  0.84492  0.55317  0.61462  1.0000
  H   H15       1.0  0.46272  0.63607  0.52495  1.0000
  H   H16       1.0  0.53728  0.36392  0.47504  1.0000
  H   H17       1.0  0.50760  0.89316  0.59208  1.0000
  H   H18       1.0  0.49240  0.10684  0.40792  1.0000
  H   H19       1.0  0.24393  0.96411  0.51067  1.0000
  H   H20       1.0  0.75606  0.03589  0.48933  1.0000
  H   H21       1.0  0.26931  0.09354  0.01176  1.0000
  H   H22       1.0  0.73069  0.90646  0.98824  1.0000
  H   H23       1.0  0.82680  0.14009  0.12240  1.0000
  H   H24       1.0  0.17320  0.85991  0.87760  1.0000
  C   C1        1.0  0.50381  0.84169  0.25178  1.0000
  C   C2        1.0  0.49618  0.15832  0.74822  1.0000
  C   C3        1.0  0.31822  0.79915  0.19513  1.0000
  C   C4        1.0  0.68178  0.20085  0.80487  1.0000
  C   C5        1.0  0.20867  0.65080  0.13565  1.0000
  C   C6        1.0  0.79133  0.34921  0.86435  1.0000
  C   C7        1.0  0.28466  0.54902  0.13621  1.0000
  C   C8        1.0  0.71534  0.45098  0.86379  1.0000
  C   C9        1.0  0.47103  0.59975  0.19613  1.0000
  C   C10       1.0  0.52896  0.40025  0.80387  1.0000
  C   C11       1.0  0.57058  0.50606  0.20441  1.0000
  C   C12       1.0  0.42942  0.49394  0.79559  1.0000
  C   C13       1.0  0.50283  0.35967  0.14290  1.0000
  C   C14       1.0  0.49716  0.64033  0.85710  1.0000
  C   C15       1.0  0.61944  0.28803  0.15241  1.0000
  C   C16       1.0  0.38056  0.71198  0.84759  1.0000
  C   C17       1.0  0.80015  0.36634  0.23122  1.0000
  C   C18       1.0  0.19985  0.63366  0.76878  1.0000
  C   C19       1.0  0.85858  0.51177  0.29234  1.0000
  C   C20       1.0  0.14142  0.48823  0.70766  1.0000
  C   C21       1.0  0.04227  0.60916  0.37604  1.0000
  C   C22       1.0  0.95773  0.39084  0.62396  1.0000
  C   C23       1.0  0.17992  0.56199  0.41637  1.0000
  C   C24       1.0  0.82007  0.43800  0.58363  1.0000
  C   C25       1.0  0.34912  0.66580  0.49397  1.0000
  C   C26       1.0  0.65087  0.33419  0.50604  1.0000
  C   C27       1.0  0.37548  0.81207  0.53041  1.0000
  C   C28       1.0  0.62451  0.18792  0.46959  1.0000
  C   C29       1.0  0.23175  0.85141  0.48708  1.0000
  C   C30       1.0  0.76825  0.14858  0.51292  1.0000
  C   C31       1.0  0.55695  0.13921  0.07770  1.0000
  C   C32       1.0  0.44305  0.86079  0.92229  1.0000
  C   C33       1.0  0.37325  0.05540  0.00675  1.0000
  C   C34       1.0  0.62675  0.94460  0.99325  1.0000
  C   C35       1.0  0.68259  0.08031  0.06948  1.0000
  C   C36       1.0  0.31741  0.91970  0.93052  1.0000
  S   S1        1.0  0.87718  0.87423  0.66906  1.0000
  S   S2        1.0  0.12283  0.12576  0.33095  1.0000
  N   N1        1.0  0.57792  0.74491  0.25219  1.0000
  N   N2        1.0  0.42207  0.25510  0.74781  1.0000
  N   N3        1.0  0.74541  0.57874  0.27626  1.0000
  N   N4        1.0  0.25459  0.42126  0.72374  1.0000
  N   N5        1.0  0.06901  0.75224  0.41139  1.0000
  N   N6        1.0  0.93099  0.24776  0.58861  1.0000
  O   O1        1.0  0.77480  0.81129  0.53232  1.0000
  O   O2        1.0  0.22522  0.18871  0.46769  1.0000
  O   O3        1.0  0.90206  0.75514  0.73966  1.0000
  O   O4        1.0  0.09796  0.24486  0.26034  1.0000
  O   O5        1.0  0.92926  0.00571  0.32754  1.0000
  O   O6        1.0  0.07076  0.99430  0.67246  1.0000
  O   O7        1.0  0.78159  0.94309  0.72870  1.0000
  O   O8        1.0  0.21842  0.05691  0.27131  1.0000
