data_image0
_chemical_formula_structural       Cu2Mo2H20C30N6O8
_chemical_formula_sum              "Cu2 Mo2 H20 C30 N6 O8"
_cell_length_a       8.29228
_cell_length_b       9.53397
_cell_length_c       10.4816
_cell_angle_alpha    63.3684
_cell_angle_beta     72.5306
_cell_angle_gamma    68.8298

_space_group_name_H-M_alt    "P 1"
_space_group_IT_number       1

loop_
  _space_group_symop_operation_xyz
  'x, y, z'

loop_
  _atom_site_type_symbol
  _atom_site_label
  _atom_site_symmetry_multiplicity
  _atom_site_fract_x
  _atom_site_fract_y
  _atom_site_fract_z
  _atom_site_occupancy
  Cu  Cu1       1.0  0.88769  0.14300  0.67564  1.0000
  Cu  Cu2       1.0  0.11231  0.85700  0.32436  1.0000
  Mo  Mo1       1.0  0.05975  0.24917  0.30015  1.0000
  Mo  Mo2       1.0  0.94025  0.75082  0.69985  1.0000
  H   H1        1.0  0.72052  0.08334  0.48475  1.0000
  H   H2        1.0  0.27949  0.91666  0.51525  1.0000
  H   H3        1.0  0.42353  0.20229  0.40176  1.0000
  H   H4        1.0  0.57647  0.79771  0.59824  1.0000
  H   H5        1.0  0.19154  0.39666  0.50286  1.0000
  H   H6        1.0  0.80846  0.60334  0.49713  1.0000
  H   H7        1.0  0.25910  0.47279  0.67785  1.0000
  H   H8        1.0  0.74090  0.52721  0.32214  1.0000
  H   H9        1.0  0.33576  0.48561  0.85625  1.0000
  H   H10       1.0  0.66424  0.51439  0.14376  1.0000
  H   H11       1.0  0.80215  0.40124  0.01994  1.0000
  H   H12       1.0  0.19785  0.59876  0.98007  1.0000
  H   H13       1.0  0.08236  0.28571  0.00058  1.0000
  H   H14       1.0  0.91764  0.71429  0.99942  1.0000
  H   H15       1.0  0.37739  0.09042  0.00954  1.0000
  H   H16       1.0  0.62260  0.90958  0.99046  1.0000
  H   H17       1.0  0.47439  0.90726  0.86477  1.0000
  H   H18       1.0  0.52561  0.09274  0.13523  1.0000
  H   H19       1.0  0.25813  0.92851  0.73078  1.0000
  H   H20       1.0  0.74188  0.07149  0.26922  1.0000
  C   C1        1.0  0.61305  0.16920  0.52426  1.0000
  C   C2        1.0  0.38696  0.83080  0.47573  1.0000
  C   C3        1.0  0.44998  0.23512  0.47943  1.0000
  C   C4        1.0  0.55003  0.76488  0.52056  1.0000
  C   C5        1.0  0.32068  0.34562  0.53475  1.0000
  C   C6        1.0  0.67933  0.65438  0.46524  1.0000
  C   C7        1.0  0.35784  0.38769  0.63209  1.0000
  C   C8        1.0  0.64216  0.61232  0.36790  1.0000
  C   C9        1.0  0.52407  0.31767  0.67161  1.0000
  C   C10       1.0  0.47593  0.68233  0.32839  1.0000
  C   C11       1.0  0.58177  0.35293  0.77146  1.0000
  C   C12       1.0  0.41823  0.64707  0.22854  1.0000
  C   C13       1.0  0.47630  0.43752  0.85972  1.0000
  C   C14       1.0  0.52370  0.56248  0.14028  1.0000
  C   C15       1.0  0.55378  0.45706  0.95125  1.0000
  C   C16       1.0  0.44622  0.54294  0.04875  1.0000
  C   C17       1.0  0.73530  0.39038  0.95089  1.0000
  C   C18       1.0  0.26470  0.60962  0.04911  1.0000
  C   C19       1.0  0.83149  0.30291  0.86350  1.0000
  C   C20       1.0  0.16851  0.69709  0.13650  1.0000
  C   C21       1.0  0.01474  0.20553  0.86592  1.0000
  C   C22       1.0  0.98526  0.79448  0.13408  1.0000
  C   C23       1.0  0.12545  0.20243  0.94466  1.0000
  C   C24       1.0  0.87454  0.79758  0.05534  1.0000
  C   C25       1.0  0.29157  0.09349  0.94712  1.0000
  C   C26       1.0  0.70843  0.90652  0.05288  1.0000
  C   C27       1.0  0.34459  0.99284  0.86982  1.0000
  C   C28       1.0  0.65541  0.00716  0.13018  1.0000
  C   C29       1.0  0.22714  0.00472  0.79186  1.0000
  C   C30       1.0  0.77286  0.99528  0.20815  1.0000
  N   N1        1.0  0.64899  0.20973  0.61781  1.0000
  N   N2        1.0  0.35101  0.79027  0.38219  1.0000
  N   N3        1.0  0.75436  0.28858  0.77564  1.0000
  N   N4        1.0  0.24564  0.71142  0.22436  1.0000
  N   N5        1.0  0.06709  0.10785  0.79037  1.0000
  N   N6        1.0  0.93291  0.89215  0.20963  1.0000
  O   O1        1.0  0.00929  0.28735  0.46162  1.0000
  O   O2        1.0  0.99072  0.71264  0.53838  1.0000
  O   O3        1.0  0.28376  0.23090  0.22648  1.0000
  O   O4        1.0  0.71624  0.76909  0.77351  1.0000
  O   O5        1.0  0.92848  0.41128  0.17456  1.0000
  O   O6        1.0  0.07151  0.58871  0.82545  1.0000
  O   O7        1.0  0.99419  0.93652  0.65863  1.0000
  O   O8        1.0  0.00580  0.06347  0.34139  1.0000
