data_image0
_chemical_formula_structural       Cu2H30C36S4N6O10
_chemical_formula_sum              "Cu2 H30 C36 S4 N6 O10"
_cell_length_a       9.88944
_cell_length_b       10.2926
_cell_length_c       12.4781
_cell_angle_alpha    73.4038
_cell_angle_beta     68.7553
_cell_angle_gamma    69.6345

_space_group_name_H-M_alt    "P 1"
_space_group_IT_number       1

loop_
  _space_group_symop_operation_xyz
  'x, y, z'

loop_
  _atom_site_type_symbol
  _atom_site_label
  _atom_site_symmetry_multiplicity
  _atom_site_fract_x
  _atom_site_fract_y
  _atom_site_fract_z
  _atom_site_occupancy
  Cu  Cu1       1.0  0.94341  0.50180  0.37748  1.0000
  Cu  Cu2       1.0  0.05659  0.49820  0.62252  1.0000
  H   H1        1.0  0.28307  0.41583  0.32990  1.0000
  H   H2        1.0  0.71693  0.58418  0.67011  1.0000
  H   H3        1.0  0.49124  0.19112  0.29261  1.0000
  H   H4        1.0  0.50877  0.80890  0.70738  1.0000
  H   H5        1.0  0.42071  0.97641  0.30273  1.0000
  H   H6        1.0  0.57930  0.02359  0.69727  1.0000
  H   H7        1.0  0.15246  0.99088  0.34082  1.0000
  H   H8        1.0  0.84755  0.00912  0.65918  1.0000
  H   H9        1.0  0.61734  0.51246  0.41823  1.0000
  H   H10       1.0  0.38265  0.48753  0.58177  1.0000
  H   H11       1.0  0.48116  0.32918  0.45381  1.0000
  H   H12       1.0  0.51885  0.67080  0.54619  1.0000
  H   H13       1.0  0.63555  0.08199  0.43158  1.0000
  H   H14       1.0  0.36447  0.91800  0.56843  1.0000
  H   H15       1.0  0.91589  0.02486  0.37943  1.0000
  H   H16       1.0  0.08412  0.97513  0.62057  1.0000
  H   H17       1.0  0.19008  0.53781  0.11054  1.0000
  H   H18       1.0  0.80993  0.46219  0.88946  1.0000
  H   H19       1.0  0.85782  0.69888  0.01457  1.0000
  H   H20       1.0  0.14217  0.30113  0.98543  1.0000
  H   H21       1.0  0.96544  0.65951  0.87110  1.0000
  H   H22       1.0  0.03456  0.34048  0.12891  1.0000
  H   H23       1.0  0.94895  0.82238  0.90507  1.0000
  H   H24       1.0  0.05105  0.17762  0.09494  1.0000
  H   H25       1.0  0.32474  0.59788  0.93843  1.0000
  H   H26       1.0  0.67525  0.40211  0.06158  1.0000
  H   H27       1.0  0.23865  0.75375  0.85202  1.0000
  H   H28       1.0  0.76135  0.24624  0.14799  1.0000
  H   H29       1.0  0.25755  0.58415  0.82786  1.0000
  H   H30       1.0  0.74245  0.41584  0.17215  1.0000
  C   C1        1.0  0.86768  0.83574  0.26236  1.0000
  C   C2        1.0  0.13231  0.16427  0.73763  1.0000
  C   C3        1.0  0.01572  0.80595  0.25314  1.0000
  C   C4        1.0  0.98426  0.19406  0.74685  1.0000
  C   C5        1.0  0.98595  0.96837  0.05726  1.0000
  C   C6        1.0  0.01404  0.03164  0.94273  1.0000
  C   C7        1.0  0.74257  0.78893  0.36182  1.0000
  C   C8        1.0  0.25743  0.21107  0.63818  1.0000
  C   C9        1.0  0.10112  0.71572  0.33833  1.0000
  C   C10       1.0  0.89887  0.28429  0.66167  1.0000
  C   C11       1.0  0.26089  0.32014  0.32774  1.0000
  C   C12       1.0  0.73911  0.67987  0.67226  1.0000
  C   C13       1.0  0.37427  0.19553  0.30837  1.0000
  C   C14       1.0  0.62575  0.80448  0.69162  1.0000
  C   C15       1.0  0.33459  0.07625  0.31304  1.0000
  C   C16       1.0  0.66542  0.92376  0.68695  1.0000
  C   C17       1.0  0.18330  0.08488  0.33572  1.0000
  C   C18       1.0  0.81671  0.91512  0.66428  1.0000
  C   C19       1.0  0.07526  0.21355  0.35306  1.0000
  C   C20       1.0  0.92475  0.78645  0.64694  1.0000
  C   C21       1.0  0.67741  0.40245  0.41257  1.0000
  C   C22       1.0  0.32259  0.59754  0.58744  1.0000
  C   C23       1.0  0.60382  0.30165  0.42940  1.0000
  C   C24       1.0  0.39618  0.69834  0.57060  1.0000
  C   C25       1.0  0.68972  0.16364  0.41826  1.0000
  C   C26       1.0  0.31028  0.83635  0.58175  1.0000
  C   C27       1.0  0.84606  0.13134  0.39016  1.0000
  C   C28       1.0  0.15395  0.86866  0.60985  1.0000
  C   C29       1.0  0.91223  0.23668  0.37775  1.0000
  C   C30       1.0  0.08777  0.76332  0.62225  1.0000
  C   C31       1.0  0.07929  0.58136  0.09250  1.0000
  C   C32       1.0  0.92071  0.41863  0.90751  1.0000
  C   C33       1.0  0.95735  0.71010  0.94030  1.0000
  C   C34       1.0  0.04264  0.28990  0.05971  1.0000
  C   C35       1.0  0.23593  0.64491  0.89471  1.0000
  C   C36       1.0  0.76407  0.35509  0.10530  1.0000
  S   S1        1.0  0.80464  0.95937  0.14904  1.0000
  S   S2        1.0  0.19535  0.04064  0.85095  1.0000
  S   S3        1.0  0.12677  0.89310  0.12883  1.0000
  S   S4        1.0  0.87321  0.10692  0.87117  1.0000
  N   N1        1.0  0.11551  0.32858  0.34887  1.0000
  N   N2        1.0  0.88450  0.67142  0.65112  1.0000
  N   N3        1.0  0.82729  0.37016  0.38894  1.0000
  N   N4        1.0  0.17271  0.62983  0.61106  1.0000
  N   N5        1.0  0.09053  0.64353  0.98050  1.0000
  N   N6        1.0  0.90947  0.35647  0.01950  1.0000
  O   O1        1.0  0.76456  0.65971  0.41598  1.0000
  O   O2        1.0  0.23544  0.34028  0.58401  1.0000
  O   O3        1.0  0.61965  0.88124  0.38542  1.0000
  O   O4        1.0  0.38035  0.11876  0.61458  1.0000
  O   O5        1.0  0.07275  0.59722  0.39588  1.0000
  O   O6        1.0  0.92726  0.40277  0.60410  1.0000
  O   O7        1.0  0.19935  0.75950  0.34648  1.0000
  O   O8        1.0  0.80060  0.24053  0.65354  1.0000
  O   O9        1.0  0.95946  0.57087  0.17019  1.0000
  O   O10       1.0  0.04055  0.42913  0.82982  1.0000
