data_image0
_chemical_formula_structural       Zn2P4H32C34N4O12
_chemical_formula_sum              "Zn2 P4 H32 C34 N4 O12"
_cell_length_a       8.55449
_cell_length_b       9.04244
_cell_length_c       12.2973
_cell_angle_alpha    95.4476
_cell_angle_beta     107.067
_cell_angle_gamma    102.478

_space_group_name_H-M_alt    "P 1"
_space_group_IT_number       1

loop_
  _space_group_symop_operation_xyz
  'x, y, z'

loop_
  _atom_site_type_symbol
  _atom_site_label
  _atom_site_symmetry_multiplicity
  _atom_site_fract_x
  _atom_site_fract_y
  _atom_site_fract_z
  _atom_site_occupancy
  Zn  Zn1       1.0  0.67992  0.64957  0.89000  1.0000
  Zn  Zn2       1.0  0.32008  0.35042  0.11000  1.0000
  P   P1        1.0  0.65686  0.46192  0.65335  1.0000
  P   P2        1.0  0.34314  0.53808  0.34665  1.0000
  P   P3        1.0  0.31180  0.42007  0.85333  1.0000
  P   P4        1.0  0.68820  0.57992  0.14667  1.0000
  H   H1        1.0  0.43517  0.35626  0.49193  1.0000
  H   H2        1.0  0.56483  0.64374  0.50807  1.0000
  H   H3        1.0  0.50978  0.34297  0.80608  1.0000
  H   H4        1.0  0.49021  0.65703  0.19392  1.0000
  H   H5        1.0  0.39210  0.78757  0.77871  1.0000
  H   H6        1.0  0.60790  0.21243  0.22129  1.0000
  H   H7        1.0  0.34936  0.98315  0.64506  1.0000
  H   H8        1.0  0.65065  0.01685  0.35494  1.0000
  H   H9        1.0  0.60036  0.12977  0.60207  1.0000
  H   H10       1.0  0.39965  0.87023  0.39793  1.0000
  H   H11       1.0  0.88551  0.09436  0.70210  1.0000
  H   H12       1.0  0.11449  0.90564  0.29790  1.0000
  H   H13       1.0  0.11556  0.09581  0.83009  1.0000
  H   H14       1.0  0.88444  0.90420  0.16992  1.0000
  H   H15       1.0  0.37659  0.02977  0.93624  1.0000
  H   H16       1.0  0.62340  0.97023  0.06376  1.0000
  H   H17       1.0  0.35420  0.78721  0.02683  1.0000
  H   H18       1.0  0.64580  0.21279  0.97317  1.0000
  H   H19       1.0  0.06598  0.63334  0.01037  1.0000
  H   H20       1.0  0.93402  0.36665  0.98963  1.0000
  H   H21       1.0  0.87273  0.21916  0.33531  1.0000
  H   H22       1.0  0.12727  0.78085  0.66469  1.0000
  H   H23       1.0  0.96776  0.08395  0.40805  1.0000
  H   H24       1.0  0.03224  0.91605  0.59195  1.0000
  H   H25       1.0  0.09654  0.25475  0.38917  1.0000
  H   H26       1.0  0.90346  0.74526  0.61083  1.0000
  H   H27       1.0  0.23545  0.27754  0.61070  1.0000
  H   H28       1.0  0.76455  0.72246  0.38930  1.0000
  H   H29       1.0  0.98381  0.47829  0.81933  1.0000
  H   H30       1.0  0.01619  0.52171  0.18067  1.0000
  H   H31       1.0  0.72921  0.31992  0.45587  1.0000
  H   H32       1.0  0.27079  0.68008  0.54413  1.0000
  C   C1        1.0  0.49663  0.86114  0.75997  1.0000
  C   C2        1.0  0.50337  0.13886  0.24003  1.0000
  C   C3        1.0  0.47453  0.96691  0.68536  1.0000
  C   C4        1.0  0.52548  0.03309  0.31464  1.0000
  C   C5        1.0  0.61539  0.04945  0.66241  1.0000
  C   C6        1.0  0.38462  0.95055  0.33759  1.0000
  C   C7        1.0  0.77430  0.02957  0.71859  1.0000
  C   C8        1.0  0.22570  0.97043  0.28141  1.0000
  C   C9        1.0  0.78786  0.92410  0.79462  1.0000
  C   C10       1.0  0.21214  0.07590  0.20538  1.0000
  C   C11       1.0  0.95099  0.89472  0.85808  1.0000
  C   C12       1.0  0.04902  0.10527  0.14192  1.0000
  C   C13       1.0  0.10760  0.99150  0.86767  1.0000
  C   C14       1.0  0.89240  0.00849  0.13233  1.0000
  C   C15       1.0  0.25468  0.95436  0.92894  1.0000
  C   C16       1.0  0.74532  0.04564  0.07106  1.0000
  C   C17       1.0  0.24291  0.82264  0.97988  1.0000
  C   C18       1.0  0.75709  0.17736  0.02012  1.0000
  C   C19       1.0  0.08214  0.73446  0.96904  1.0000
  C   C20       1.0  0.91787  0.26554  0.03096  1.0000
  C   C21       1.0  0.97883  0.20758  0.40693  1.0000
  C   C22       1.0  0.02117  0.79243  0.59307  1.0000
  C   C23       1.0  0.98102  0.28804  0.52030  1.0000
  C   C24       1.0  0.01899  0.71197  0.47969  1.0000
  C   C25       1.0  0.12471  0.31333  0.61846  1.0000
  C   C26       1.0  0.87529  0.68667  0.38154  1.0000
  C   C27       1.0  0.12817  0.38454  0.72563  1.0000
  C   C28       1.0  0.87183  0.61546  0.27437  1.0000
  C   C29       1.0  0.98487  0.42887  0.73550  1.0000
  C   C30       1.0  0.01513  0.57113  0.26450  1.0000
  C   C31       1.0  0.84137  0.40598  0.63877  1.0000
  C   C32       1.0  0.15863  0.59402  0.36123  1.0000
  C   C33       1.0  0.84130  0.33735  0.53145  1.0000
  C   C34       1.0  0.15869  0.66265  0.46855  1.0000
  N   N1        1.0  0.64938  0.84014  0.81264  1.0000
  N   N2        1.0  0.35062  0.15985  0.18736  1.0000
  N   N3        1.0  0.94027  0.76877  0.90889  1.0000
  N   N4        1.0  0.05973  0.23123  0.09111  1.0000
  O   O1        1.0  0.65427  0.61802  0.61805  1.0000
  O   O2        1.0  0.34573  0.38198  0.38195  1.0000
  O   O3        1.0  0.49882  0.33202  0.57386  1.0000
  O   O4        1.0  0.50118  0.66798  0.42614  1.0000
  O   O5        1.0  0.66418  0.45690  0.77993  1.0000
  O   O6        1.0  0.33582  0.54310  0.22007  1.0000
  O   O7        1.0  0.42271  0.58130  0.86741  1.0000
  O   O8        1.0  0.57728  0.41870  0.13259  1.0000
  O   O9        1.0  0.41167  0.29490  0.83269  1.0000
  O   O10       1.0  0.58833  0.70509  0.16732  1.0000
  O   O11       1.0  0.23887  0.38523  0.94976  1.0000
  O   O12       1.0  0.76113  0.61477  0.05024  1.0000
