data_image0
_chemical_formula_structural       Cu2P4H32C34N4O12
_chemical_formula_sum              "Cu2 P4 H32 C34 N4 O12"
_cell_length_a       8.48446
_cell_length_b       8.71226
_cell_length_c       12.7477
_cell_angle_alpha    96.1045
_cell_angle_beta     107.886
_cell_angle_gamma    103.82

_space_group_name_H-M_alt    "P 1"
_space_group_IT_number       1

loop_
  _space_group_symop_operation_xyz
  'x, y, z'

loop_
  _atom_site_type_symbol
  _atom_site_label
  _atom_site_symmetry_multiplicity
  _atom_site_fract_x
  _atom_site_fract_y
  _atom_site_fract_z
  _atom_site_occupancy
  Cu  Cu1       1.0  0.68116  0.68791  0.90941  1.0000
  Cu  Cu2       1.0  0.31884  0.31209  0.09059  1.0000
  P   P1        1.0  0.64919  0.46553  0.65530  1.0000
  P   P2        1.0  0.35082  0.53447  0.34470  1.0000
  P   P3        1.0  0.31931  0.43588  0.86252  1.0000
  P   P4        1.0  0.68069  0.56412  0.13748  1.0000
  H   H1        1.0  0.43411  0.34889  0.49205  1.0000
  H   H2        1.0  0.56590  0.65111  0.50796  1.0000
  H   H3        1.0  0.51603  0.36309  0.80848  1.0000
  H   H4        1.0  0.48397  0.63690  0.19153  1.0000
  H   H5        1.0  0.38376  0.79160  0.77113  1.0000
  H   H6        1.0  0.61623  0.20839  0.22886  1.0000
  H   H7        1.0  0.34984  0.98038  0.63214  1.0000
  H   H8        1.0  0.65015  0.01961  0.36785  1.0000
  H   H9        1.0  0.60985  0.12098  0.59141  1.0000
  H   H10       1.0  0.39014  0.87901  0.40859  1.0000
  H   H11       1.0  0.89715  0.08906  0.69741  1.0000
  H   H12       1.0  0.10284  0.91093  0.30259  1.0000
  H   H13       1.0  0.13421  0.06522  0.81003  1.0000
  H   H14       1.0  0.86579  0.93479  0.18997  1.0000
  H   H15       1.0  0.38508  0.99210  0.92739  1.0000
  H   H16       1.0  0.61492  0.00790  0.07261  1.0000
  H   H17       1.0  0.33813  0.77457  0.04133  1.0000
  H   H18       1.0  0.66187  0.22543  0.95867  1.0000
  H   H19       1.0  0.03536  0.65571  0.03878  1.0000
  H   H20       1.0  0.96464  0.34429  0.96122  1.0000
  H   H21       1.0  0.88687  0.23277  0.35392  1.0000
  H   H22       1.0  0.11314  0.76723  0.64608  1.0000
  H   H23       1.0  0.96297  0.08328  0.42223  1.0000
  H   H24       1.0  0.03704  0.91672  0.57777  1.0000
  H   H25       1.0  0.11197  0.25876  0.41389  1.0000
  H   H26       1.0  0.88804  0.74124  0.58611  1.0000
  H   H27       1.0  0.24413  0.28995  0.62825  1.0000
  H   H28       1.0  0.75588  0.71005  0.37175  1.0000
  H   H29       1.0  0.98215  0.49453  0.82327  1.0000
  H   H30       1.0  0.01785  0.50547  0.17673  1.0000
  H   H31       1.0  0.73235  0.32732  0.46683  1.0000
  H   H32       1.0  0.26765  0.67268  0.53317  1.0000
  C   C1        1.0  0.49264  0.86347  0.75278  1.0000
  C   C2        1.0  0.50735  0.13653  0.24721  1.0000
  C   C3        1.0  0.47556  0.96474  0.67527  1.0000
  C   C4        1.0  0.52444  0.03525  0.32473  1.0000
  C   C5        1.0  0.62171  0.04400  0.65331  1.0000
  C   C6        1.0  0.37828  0.95599  0.34669  1.0000
  C   C7        1.0  0.78158  0.02613  0.71272  1.0000
  C   C8        1.0  0.21842  0.97388  0.28728  1.0000
  C   C9        1.0  0.79055  0.92611  0.79144  1.0000
  C   C10       1.0  0.20945  0.07389  0.20856  1.0000
  C   C11       1.0  0.95032  0.89559  0.85887  1.0000
  C   C12       1.0  0.04968  0.10441  0.14113  1.0000
  C   C13       1.0  0.11523  0.97283  0.85967  1.0000
  C   C14       1.0  0.88477  0.02717  0.14034  1.0000
  C   C15       1.0  0.25650  0.93149  0.92648  1.0000
  C   C16       1.0  0.74350  0.06852  0.07353  1.0000
  C   C17       1.0  0.23152  0.81369  0.99065  1.0000
  C   C18       1.0  0.76848  0.18631  0.00935  1.0000
  C   C19       1.0  0.06413  0.74452  0.98822  1.0000
  C   C20       1.0  0.93587  0.25548  0.01178  1.0000
  C   C21       1.0  0.98714  0.21421  0.42545  1.0000
  C   C22       1.0  0.01287  0.78579  0.57455  1.0000
  C   C23       1.0  0.98722  0.29753  0.53505  1.0000
  C   C24       1.0  0.01278  0.70247  0.46495  1.0000
  C   C25       1.0  0.13129  0.32555  0.63326  1.0000
  C   C26       1.0  0.86871  0.67446  0.36674  1.0000
  C   C27       1.0  0.13242  0.39976  0.73670  1.0000
  C   C28       1.0  0.86759  0.60025  0.26330  1.0000
  C   C29       1.0  0.98587  0.44285  0.74275  1.0000
  C   C30       1.0  0.01412  0.55714  0.25725  1.0000
  C   C31       1.0  0.84117  0.41579  0.64596  1.0000
  C   C32       1.0  0.15883  0.58421  0.35403  1.0000
  C   C33       1.0  0.84456  0.34615  0.54254  1.0000
  C   C34       1.0  0.15544  0.65385  0.45746  1.0000
  N   N1        1.0  0.64643  0.84549  0.80916  1.0000
  N   N2        1.0  0.35357  0.15451  0.19084  1.0000
  N   N3        1.0  0.92813  0.78500  0.92412  1.0000
  N   N4        1.0  0.07187  0.21500  0.07588  1.0000
  O   O1        1.0  0.64687  0.62563  0.61888  1.0000
  O   O2        1.0  0.35313  0.37437  0.38112  1.0000
  O   O3        1.0  0.49000  0.32429  0.57227  1.0000
  O   O4        1.0  0.51001  0.67571  0.42773  1.0000
  O   O5        1.0  0.65393  0.46013  0.77581  1.0000
  O   O6        1.0  0.34607  0.53987  0.22419  1.0000
  O   O7        1.0  0.43195  0.60973  0.88122  1.0000
  O   O8        1.0  0.56805  0.39027  0.11878  1.0000
  O   O9        1.0  0.41902  0.31105  0.83977  1.0000
  O   O10       1.0  0.58098  0.68896  0.16023  1.0000
  O   O11       1.0  0.24547  0.39926  0.95522  1.0000
  O   O12       1.0  0.75453  0.60074  0.04478  1.0000
