data_image0
_chemical_formula_structural       Cu4H16C16S4N8
_chemical_formula_sum              "Cu4 H16 C16 S4 N8"
_cell_length_a       7.45668
_cell_length_b       7.61644
_cell_length_c       11.0592
_cell_angle_alpha    101.835
_cell_angle_beta     90.0029
_cell_angle_gamma    119.307

_space_group_name_H-M_alt    "P 1"
_space_group_IT_number       1

loop_
  _space_group_symop_operation_xyz
  'x, y, z'

loop_
  _atom_site_type_symbol
  _atom_site_label
  _atom_site_symmetry_multiplicity
  _atom_site_fract_x
  _atom_site_fract_y
  _atom_site_fract_z
  _atom_site_occupancy
  Cu  Cu1       1.0  0.05760  0.35856  0.52204  1.0000
  Cu  Cu2       1.0  0.30089  0.35872  0.02205  1.0000
  Cu  Cu3       1.0  0.94240  0.64144  0.47796  1.0000
  Cu  Cu4       1.0  0.69911  0.64128  0.97795  1.0000
  H   H1        1.0  0.65773  0.10866  0.35779  1.0000
  H   H2        1.0  0.45118  0.10927  0.85776  1.0000
  H   H3        1.0  0.34227  0.89135  0.64221  1.0000
  H   H4        1.0  0.54881  0.89072  0.14225  1.0000
  H   H5        1.0  0.29389  0.21572  0.47278  1.0000
  H   H6        1.0  0.92157  0.21531  0.97281  1.0000
  H   H7        1.0  0.70611  0.78429  0.52722  1.0000
  H   H8        1.0  0.07843  0.78468  0.02719  1.0000
  H   H9        1.0  0.40166  0.23651  0.32980  1.0000
  H   H10       1.0  0.83472  0.23631  0.82986  1.0000
  H   H11       1.0  0.59834  0.76350  0.67020  1.0000
  H   H12       1.0  0.16527  0.76369  0.17015  1.0000
  H   H13       1.0  0.29628  0.99815  0.37667  1.0000
  H   H14       1.0  0.70165  0.99786  0.87660  1.0000
  H   H15       1.0  0.70372  0.00185  0.62333  1.0000
  H   H16       1.0  0.29834  0.00212  0.12339  1.0000
  C   C1        1.0  0.24329  0.52799  0.28440  1.0000
  C   C2        1.0  0.28450  0.52790  0.78435  1.0000
  C   C3        1.0  0.75672  0.47201  0.71560  1.0000
  C   C4        1.0  0.71551  0.47210  0.21565  1.0000
  C   C5        1.0  0.07013  0.06323  0.31116  1.0000
  C   C6        1.0  0.99305  0.06317  0.81120  1.0000
  C   C7        1.0  0.92988  0.93677  0.68883  1.0000
  C   C8        1.0  0.00695  0.93683  0.18880  1.0000
  C   C9        1.0  0.75944  0.06065  0.30969  1.0000
  C   C10       1.0  0.30135  0.06102  0.80970  1.0000
  C   C11       1.0  0.24056  0.93935  0.69031  1.0000
  C   C12       1.0  0.69865  0.93898  0.19030  1.0000
  C   C13       1.0  0.27646  0.13203  0.37626  1.0000
  C   C14       1.0  0.85539  0.13177  0.87629  1.0000
  C   C15       1.0  0.72354  0.86798  0.62374  1.0000
  C   C16       1.0  0.14460  0.86823  0.12371  1.0000
  S   S1        1.0  0.26391  0.64304  0.42996  1.0000
  S   S2        1.0  0.37912  0.64302  0.92989  1.0000
  S   S3        1.0  0.73609  0.35697  0.57004  1.0000
  S   S4        1.0  0.62088  0.35697  0.07011  1.0000
  N   N1        1.0  0.23370  0.44274  0.18032  1.0000
  N   N2        1.0  0.20885  0.44260  0.68029  1.0000
  N   N3        1.0  0.76631  0.55725  0.81968  1.0000
  N   N4        1.0  0.79116  0.55739  0.31971  1.0000
  N   N5        1.0  0.94582  0.12538  0.37151  1.0000
  N   N6        1.0  0.17959  0.12551  0.87157  1.0000
  N   N7        1.0  0.05418  0.87462  0.62849  1.0000
  N   N8        1.0  0.82040  0.87449  0.12843  1.0000
