data_image0
_chemical_formula_structural       Na2Cu3P4H16C8N2O16
_chemical_formula_sum              "Na2 Cu3 P4 H16 C8 N2 O16"
_cell_length_a       6.27512
_cell_length_b       6.9855
_cell_length_c       11.8957
_cell_angle_alpha    85.4411
_cell_angle_beta     85.499
_cell_angle_gamma    81.1531

_space_group_name_H-M_alt    "P 1"
_space_group_IT_number       1

loop_
  _space_group_symop_operation_xyz
  'x, y, z'

loop_
  _atom_site_type_symbol
  _atom_site_label
  _atom_site_symmetry_multiplicity
  _atom_site_fract_x
  _atom_site_fract_y
  _atom_site_fract_z
  _atom_site_occupancy
  Na  Na1       1.0  0.79932  0.60342  0.58714  1.0000
  Na  Na2       1.0  0.20069  0.39647  0.41294  1.0000
  Cu  Cu1       1.0  0.99984  0.00005  0.50003  1.0000
  Cu  Cu2       1.0  0.42897  0.89624  0.81265  1.0000
  Cu  Cu3       1.0  0.57102  0.10387  0.18758  1.0000
  P   P1        1.0  0.93283  0.94667  0.76303  1.0000
  P   P2        1.0  0.06708  0.05325  0.23690  1.0000
  P   P3        1.0  0.20507  0.23604  0.65613  1.0000
  P   P4        1.0  0.79485  0.76409  0.34383  1.0000
  H   H1        1.0  0.63719  0.24217  0.68747  1.0000
  H   H2        1.0  0.36271  0.75764  0.31262  1.0000
  H   H3        1.0  0.38921  0.84635  0.59684  1.0000
  H   H4        1.0  0.61096  0.15366  0.40301  1.0000
  H   H5        1.0  0.34121  0.63457  0.63590  1.0000
  H   H6        1.0  0.65879  0.36554  0.36405  1.0000
  H   H7        1.0  0.74960  0.29693  0.88042  1.0000
  H   H8        1.0  0.25049  0.70296  0.11964  1.0000
  H   H9        1.0  0.92345  0.46659  0.82413  1.0000
  H   H10       1.0  0.07666  0.53330  0.17594  1.0000
  H   H11       1.0  0.02782  0.24583  0.90220  1.0000
  H   H12       1.0  0.97227  0.75401  0.09783  1.0000
  H   H13       1.0  0.25849  0.51882  0.84792  1.0000
  H   H14       1.0  0.74165  0.48127  0.15215  1.0000
  H   H15       1.0  0.70186  0.76957  0.00527  1.0000
  H   H16       1.0  0.29823  0.23047  0.99477  1.0000
  C   C1        1.0  0.94260  0.20665  0.73288  1.0000
  C   C2        1.0  0.05736  0.79329  0.26716  1.0000
  C   C3        1.0  0.91065  0.31174  0.84156  1.0000
  C   C4        1.0  0.08941  0.68815  0.15847  1.0000
  C   C5        1.0  0.36595  0.50928  0.91600  1.0000
  C   C6        1.0  0.63415  0.49077  0.08406  1.0000
  C   C7        1.0  0.61174  0.64859  0.00441  1.0000
  C   C8        1.0  0.38835  0.35144  0.99566  1.0000
  N   N1        1.0  0.47791  0.65667  0.92107  1.0000
  N   N2        1.0  0.52212  0.34343  0.07903  1.0000
  O   O1        1.0  0.93689  0.85972  0.64748  1.0000
  O   O2        1.0  0.06275  0.14042  0.35242  1.0000
  O   O3        1.0  0.12475  0.86384  0.83383  1.0000
  O   O4        1.0  0.87549  0.13567  0.16581  1.0000
  O   O5        1.0  0.72313  0.92729  0.83596  1.0000
  O   O6        1.0  0.27687  0.07276  0.16410  1.0000
  O   O7        1.0  0.23816  0.09844  0.55729  1.0000
  O   O8        1.0  0.76153  0.90218  0.44244  1.0000
  O   O9        1.0  0.38495  0.16855  0.73942  1.0000
  O   O10       1.0  0.61509  0.83108  0.26040  1.0000
  O   O11       1.0  0.19137  0.44830  0.61276  1.0000
  O   O12       1.0  0.80853  0.55196  0.38744  1.0000
  O   O13       1.0  0.77671  0.28452  0.65649  1.0000
  O   O14       1.0  0.22313  0.71545  0.34363  1.0000
  O   O15       1.0  0.44714  0.72588  0.64019  1.0000
  O   O16       1.0  0.55300  0.27414  0.35964  1.0000
