data_image0
_chemical_formula_structural       Na2Y2H24C24O24
_chemical_formula_sum              "Na2 Y2 H24 C24 O24"
_cell_length_a       6.84263
_cell_length_b       7.47557
_cell_length_c       15.6249
_cell_angle_alpha    90
_cell_angle_beta     102.638
_cell_angle_gamma    89.9999

_space_group_name_H-M_alt    "P 1"
_space_group_IT_number       1

loop_
  _space_group_symop_operation_xyz
  'x, y, z'

loop_
  _atom_site_type_symbol
  _atom_site_label
  _atom_site_symmetry_multiplicity
  _atom_site_fract_x
  _atom_site_fract_y
  _atom_site_fract_z
  _atom_site_occupancy
  Na  Na1       1.0  0.14068  0.74994  0.28156  1.0000
  Na  Na2       1.0  0.85931  0.24994  0.71844  1.0000
  Y   Y1        1.0  0.30441  0.25010  0.60876  1.0000
  Y   Y2        1.0  0.69558  0.75011  0.39124  1.0000
  H   H1        1.0  0.84492  0.26259  0.06056  1.0000
  H   H2        1.0  0.15508  0.76259  0.93944  1.0000
  H   H3        1.0  0.21620  0.23719  0.06059  1.0000
  H   H4        1.0  0.78381  0.73719  0.93941  1.0000
  H   H5        1.0  0.76311  0.25738  0.89703  1.0000
  H   H6        1.0  0.23689  0.75738  0.10298  1.0000
  H   H7        1.0  0.13456  0.24237  0.89707  1.0000
  H   H8        1.0  0.86544  0.74238  0.10293  1.0000
  H   H9        1.0  0.21890  0.40188  0.20804  1.0000
  H   H10       1.0  0.78109  0.90188  0.79196  1.0000
  H   H11       1.0  0.98911  0.09792  0.20799  1.0000
  H   H12       1.0  0.01089  0.59792  0.79201  1.0000
  H   H13       1.0  0.98437  0.41272  0.19650  1.0000
  H   H14       1.0  0.01562  0.91272  0.80350  1.0000
  H   H15       1.0  0.21208  0.08706  0.19645  1.0000
  H   H16       1.0  0.78792  0.58706  0.80355  1.0000
  H   H17       1.0  0.45741  0.61595  0.69979  1.0000
  H   H18       1.0  0.54259  0.11595  0.30021  1.0000
  H   H19       1.0  0.24233  0.88428  0.69980  1.0000
  H   H20       1.0  0.75767  0.38428  0.30020  1.0000
  H   H21       1.0  0.51358  0.76864  0.58301  1.0000
  H   H22       1.0  0.48643  0.26864  0.41698  1.0000
  H   H23       1.0  0.06925  0.73165  0.58311  1.0000
  H   H24       1.0  0.93075  0.23165  0.41689  1.0000
  C   C1        1.0  0.39522  0.25002  0.79014  1.0000
  C   C2        1.0  0.60478  0.75002  0.20986  1.0000
  C   C3        1.0  0.44402  0.24989  0.88751  1.0000
  C   C4        1.0  0.55597  0.74989  0.11249  1.0000
  C   C5        1.0  0.53571  0.24990  0.07088  1.0000
  C   C6        1.0  0.46429  0.74991  0.92912  1.0000
  C   C7        1.0  0.68963  0.25678  0.02454  1.0000
  C   C8        1.0  0.31037  0.75678  0.97545  1.0000
  C   C9        1.0  0.33548  0.24298  0.02458  1.0000
  C   C10       1.0  0.66452  0.74299  0.97542  1.0000
  C   C11       1.0  0.37668  0.68692  0.57327  1.0000
  C   C12       1.0  0.62331  0.18693  0.42673  1.0000
  C   C13       1.0  0.19640  0.81327  0.57330  1.0000
  C   C14       1.0  0.80360  0.31327  0.42669  1.0000
  C   C15       1.0  0.35251  0.58728  0.48661  1.0000
  C   C16       1.0  0.64748  0.08730  0.51340  1.0000
  C   C17       1.0  0.13396  0.91291  0.48663  1.0000
  C   C18       1.0  0.86605  0.41289  0.51337  1.0000
  C   C19       1.0  0.64449  0.25462  0.93342  1.0000
  C   C20       1.0  0.35552  0.75462  0.06658  1.0000
  C   C21       1.0  0.28956  0.24513  0.93346  1.0000
  C   C22       1.0  0.71044  0.74513  0.06654  1.0000
  C   C23       1.0  0.58464  0.24998  0.16889  1.0000
  C   C24       1.0  0.41536  0.74998  0.83111  1.0000
  O   O1        1.0  0.28987  0.42820  0.48375  1.0000
  O   O2        1.0  0.71013  0.92820  0.51625  1.0000
  O   O3        1.0  0.19386  0.07195  0.48378  1.0000
  O   O4        1.0  0.80614  0.57196  0.51622  1.0000
  O   O5        1.0  0.39523  0.66925  0.42147  1.0000
  O   O6        1.0  0.60477  0.16925  0.57853  1.0000
  O   O7        1.0  0.02608  0.83097  0.42150  1.0000
  O   O8        1.0  0.97391  0.33097  0.57850  1.0000
  O   O9        1.0  0.53530  0.24371  0.74757  1.0000
  O   O10       1.0  0.46469  0.74371  0.25243  1.0000
  O   O11       1.0  0.21250  0.25647  0.74769  1.0000
  O   O12       1.0  0.78750  0.75647  0.25231  1.0000
  O   O13       1.0  0.10620  0.48504  0.20021  1.0000
  O   O14       1.0  0.89380  0.98504  0.79979  1.0000
  O   O15       1.0  0.09395  0.01476  0.20012  1.0000
  O   O16       1.0  0.90605  0.51476  0.79988  1.0000
  O   O17       1.0  0.44725  0.20995  0.20978  1.0000
  O   O18       1.0  0.55275  0.70995  0.79022  1.0000
  O   O19       1.0  0.76286  0.29010  0.20979  1.0000
  O   O20       1.0  0.23715  0.79010  0.79021  1.0000
  O   O21       1.0  0.39469  0.55650  0.64140  1.0000
  O   O22       1.0  0.60531  0.05650  0.35860  1.0000
  O   O23       1.0  0.24671  0.94371  0.64142  1.0000
  O   O24       1.0  0.75329  0.44371  0.35858  1.0000
