data_image0
_chemical_formula_structural       Na2Y2H32C36O24
_chemical_formula_sum              "Na2 Y2 H32 C36 O24"
_cell_length_a       6.79323
_cell_length_b       7.46901
_cell_length_c       19.8559
_cell_angle_alpha    90.0002
_cell_angle_beta     99.8522
_cell_angle_gamma    89.9996

_space_group_name_H-M_alt    "P 1"
_space_group_IT_number       1

loop_
  _space_group_symop_operation_xyz
  'x, y, z'

loop_
  _atom_site_type_symbol
  _atom_site_label
  _atom_site_symmetry_multiplicity
  _atom_site_fract_x
  _atom_site_fract_y
  _atom_site_fract_z
  _atom_site_occupancy
  Na  Na1       1.0  0.33700  0.74993  0.67296  1.0000
  Na  Na2       1.0  0.66299  0.24992  0.32703  1.0000
  Y   Y1        1.0  0.20701  0.24990  0.41451  1.0000
  Y   Y2        1.0  0.79298  0.74991  0.58550  1.0000
  H   H1        1.0  0.39165  0.35045  0.18931  1.0000
  H   H2        1.0  0.20386  0.64961  0.81085  1.0000
  H   H3        1.0  0.79614  0.14961  0.18915  1.0000
  H   H4        1.0  0.60834  0.85045  0.81069  1.0000
  H   H5        1.0  0.32644  0.35390  0.06229  1.0000
  H   H6        1.0  0.26534  0.64600  0.93783  1.0000
  H   H7        1.0  0.73465  0.14600  0.06217  1.0000
  H   H8        1.0  0.67355  0.85389  0.93771  1.0000
  H   H9        1.0  0.28109  0.14922  0.96888  1.0000
  H   H10       1.0  0.31265  0.85080  0.03114  1.0000
  H   H11       1.0  0.68734  0.35080  0.96886  1.0000
  H   H12       1.0  0.71892  0.64921  0.03112  1.0000
  H   H13       1.0  0.21707  0.14727  0.84226  1.0000
  H   H14       1.0  0.37514  0.85313  0.15773  1.0000
  H   H15       1.0  0.62487  0.35311  0.84227  1.0000
  H   H16       1.0  0.78294  0.64725  0.15774  1.0000
  H   H17       1.0  0.44257  0.73199  0.43622  1.0000
  H   H18       1.0  0.00560  0.26798  0.56377  1.0000
  H   H19       1.0  0.99440  0.76798  0.43623  1.0000
  H   H20       1.0  0.55742  0.23199  0.56379  1.0000
  H   H21       1.0  0.28045  0.88321  0.34453  1.0000
  H   H22       1.0  0.93564  0.11670  0.65547  1.0000
  H   H23       1.0  0.06436  0.61669  0.34453  1.0000
  H   H24       1.0  0.71956  0.38321  0.65547  1.0000
  H   H25       1.0  0.48059  0.40898  0.73570  1.0000
  H   H26       1.0  0.74431  0.59089  0.26437  1.0000
  H   H27       1.0  0.25570  0.09089  0.73564  1.0000
  H   H28       1.0  0.51942  0.90898  0.26430  1.0000
  H   H29       1.0  0.24558  0.39753  0.72693  1.0000
  H   H30       1.0  0.51807  0.60272  0.27313  1.0000
  H   H31       1.0  0.48193  0.10271  0.72687  1.0000
  H   H32       1.0  0.75442  0.89753  0.27307  1.0000
  C   C1        1.0  0.13575  0.24990  0.27278  1.0000
  C   C2        1.0  0.86424  0.74990  0.72722  1.0000
  C   C3        1.0  0.09783  0.24991  0.19702  1.0000
  C   C4        1.0  0.90217  0.74991  0.80298  1.0000
  C   C5        1.0  0.24847  0.30449  0.16114  1.0000
  C   C6        1.0  0.08868  0.69556  0.83895  1.0000
  C   C7        1.0  0.91131  0.19556  0.16105  1.0000
  C   C8        1.0  0.75152  0.80449  0.83886  1.0000
  C   C9        1.0  0.21180  0.30527  0.09009  1.0000
  C   C10       1.0  0.12299  0.69487  0.91001  1.0000
  C   C11       1.0  0.87700  0.19487  0.08999  1.0000
  C   C12       1.0  0.78819  0.80526  0.90991  1.0000
  C   C13       1.0  0.02617  0.25004  0.05335  1.0000
  C   C14       1.0  0.97382  0.75004  0.94665  1.0000
  C   C15       1.0  0.98877  0.25009  0.97802  1.0000
  C   C16       1.0  0.01123  0.75008  0.02198  1.0000
  C   C17       1.0  0.13777  0.19594  0.94113  1.0000
  C   C18       1.0  0.19700  0.80434  0.05889  1.0000
  C   C19       1.0  0.80300  0.30434  0.94111  1.0000
  C   C20       1.0  0.86224  0.69593  0.05887  1.0000
  C   C21       1.0  0.10216  0.19437  0.87013  1.0000
  C   C22       1.0  0.23236  0.80589  0.12990  1.0000
  C   C23       1.0  0.76764  0.30589  0.87010  1.0000
  C   C24       1.0  0.89785  0.69435  0.12987  1.0000
  C   C25       1.0  0.91673  0.25005  0.83380  1.0000
  C   C26       1.0  0.08328  0.75005  0.16621  1.0000
  C   C27       1.0  0.87880  0.24998  0.75771  1.0000
  C   C28       1.0  0.12121  0.74997  0.24229  1.0000
  C   C29       1.0  0.31267  0.81331  0.44337  1.0000
  C   C30       1.0  0.86863  0.18653  0.55661  1.0000
  C   C31       1.0  0.13136  0.68653  0.44339  1.0000
  C   C32       1.0  0.68732  0.31331  0.55663  1.0000
  C   C33       1.0  0.36472  0.91397  0.51073  1.0000
  C   C34       1.0  0.85350  0.08588  0.48926  1.0000
  C   C35       1.0  0.14650  0.58587  0.51074  1.0000
  C   C36       1.0  0.63526  0.41398  0.48927  1.0000
  O   O1        1.0  0.99048  0.23651  0.30605  1.0000
  O   O2        1.0  0.68561  0.76340  0.69400  1.0000
  O   O3        1.0  0.31438  0.26340  0.30600  1.0000
  O   O4        1.0  0.00951  0.73650  0.69395  1.0000
  O   O5        1.0  0.70457  0.29192  0.72567  1.0000
  O   O6        1.0  0.97899  0.70799  0.27431  1.0000
  O   O7        1.0  0.02101  0.20799  0.72569  1.0000
  O   O8        1.0  0.29543  0.79192  0.27433  1.0000
  O   O9        1.0  0.26983  0.94321  0.39001  1.0000
  O   O10       1.0  0.87944  0.05667  0.60999  1.0000
  O   O11       1.0  0.12056  0.55667  0.39001  1.0000
  O   O12       1.0  0.73017  0.44321  0.60999  1.0000
  O   O13       1.0  0.46479  0.83271  0.56186  1.0000
  O   O14       1.0  0.90243  0.16726  0.43816  1.0000
  O   O15       1.0  0.09756  0.66726  0.56184  1.0000
  O   O16       1.0  0.53520  0.33269  0.43814  1.0000
  O   O17       1.0  0.30456  0.07344  0.51243  1.0000
  O   O18       1.0  0.79197  0.92632  0.48757  1.0000
  O   O19       1.0  0.20802  0.42630  0.51243  1.0000
  O   O20       1.0  0.69542  0.57343  0.48758  1.0000
  O   O21       1.0  0.35832  0.48089  0.73417  1.0000
  O   O22       1.0  0.62349  0.51918  0.26597  1.0000
  O   O23       1.0  0.37652  0.01918  0.73403  1.0000
  O   O24       1.0  0.64169  0.98089  0.26583  1.0000
