data_image0
_chemical_formula_structural       Cd4H28C32S8N12O4
_chemical_formula_sum              "Cd4 H28 C32 S8 N12 O4"
_cell_length_a       7.43833
_cell_length_b       7.71298
_cell_length_c       19.8407
_cell_angle_alpha    89.9999
_cell_angle_beta     99.3459
_cell_angle_gamma    89.9999

_space_group_name_H-M_alt    "P 1"
_space_group_IT_number       1

loop_
  _space_group_symop_operation_xyz
  'x, y, z'

loop_
  _atom_site_type_symbol
  _atom_site_label
  _atom_site_symmetry_multiplicity
  _atom_site_fract_x
  _atom_site_fract_y
  _atom_site_fract_z
  _atom_site_occupancy
  Cd  Cd1       1.0  0.30843  0.32465  0.48084  1.0000
  Cd  Cd2       1.0  0.69157  0.82465  0.01916  1.0000
  Cd  Cd3       1.0  0.69157  0.67535  0.51916  1.0000
  Cd  Cd4       1.0  0.30843  0.17535  0.98084  1.0000
  H   H1        1.0  0.57116  0.62569  0.36030  1.0000
  H   H2        1.0  0.42884  0.12569  0.13970  1.0000
  H   H3        1.0  0.42884  0.37431  0.63970  1.0000
  H   H4        1.0  0.57116  0.87431  0.86030  1.0000
  H   H5        1.0  0.64952  0.56055  0.24242  1.0000
  H   H6        1.0  0.35048  0.06055  0.25757  1.0000
  H   H7        1.0  0.35048  0.43945  0.75758  1.0000
  H   H8        1.0  0.64952  0.93945  0.74243  1.0000
  H   H9        1.0  0.76167  0.26504  0.21903  1.0000
  H   H10       1.0  0.23833  0.76504  0.28097  1.0000
  H   H11       1.0  0.23833  0.73496  0.78097  1.0000
  H   H12       1.0  0.76166  0.23495  0.71903  1.0000
  H   H13       1.0  0.73022  0.13506  0.42941  1.0000
  H   H14       1.0  0.26978  0.63506  0.07059  1.0000
  H   H15       1.0  0.26978  0.86494  0.57060  1.0000
  H   H16       1.0  0.73022  0.36494  0.92941  1.0000
  H   H17       1.0  0.86201  0.92385  0.35798  1.0000
  H   H18       1.0  0.13798  0.42385  0.14202  1.0000
  H   H19       1.0  0.13798  0.07615  0.64203  1.0000
  H   H20       1.0  0.86201  0.57615  0.85798  1.0000
  H   H21       1.0  0.91886  0.98888  0.27766  1.0000
  H   H22       1.0  0.08114  0.48888  0.22234  1.0000
  H   H23       1.0  0.08115  0.01112  0.72234  1.0000
  H   H24       1.0  0.91885  0.51112  0.77766  1.0000
  H   H25       1.0  0.69598  0.91540  0.28265  1.0000
  H   H26       1.0  0.30402  0.41540  0.21735  1.0000
  H   H27       1.0  0.30402  0.08460  0.71735  1.0000
  H   H28       1.0  0.69598  0.58460  0.78265  1.0000
  C   C1        1.0  0.41188  0.94463  0.41582  1.0000
  C   C2        1.0  0.58812  0.44463  0.08418  1.0000
  C   C3        1.0  0.58812  0.05537  0.58418  1.0000
  C   C4        1.0  0.41188  0.55537  0.91582  1.0000
  C   C5        1.0  0.97188  0.36650  0.56922  1.0000
  C   C6        1.0  0.02812  0.86651  0.93077  1.0000
  C   C7        1.0  0.02812  0.63350  0.43078  1.0000
  C   C8        1.0  0.97188  0.13349  0.06922  1.0000
  C   C9        1.0  0.62344  0.50188  0.34574  1.0000
  C   C10       1.0  0.37656  0.00188  0.15426  1.0000
  C   C11       1.0  0.37656  0.49812  0.65426  1.0000
  C   C12       1.0  0.62345  0.99812  0.84574  1.0000
  C   C13       1.0  0.66625  0.46181  0.28222  1.0000
  C   C14       1.0  0.33375  0.96180  0.21778  1.0000
  C   C15       1.0  0.33375  0.53819  0.71778  1.0000
  C   C16       1.0  0.66625  0.03819  0.78222  1.0000
  C   C17       1.0  0.72928  0.29695  0.26930  1.0000
  C   C18       1.0  0.27072  0.79695  0.23069  1.0000
  C   C19       1.0  0.27072  0.70305  0.73070  1.0000
  C   C20       1.0  0.72928  0.20305  0.76931  1.0000
  C   C21       1.0  0.75209  0.17189  0.32136  1.0000
  C   C22       1.0  0.24791  0.67189  0.17864  1.0000
  C   C23       1.0  0.24791  0.82811  0.67864  1.0000
  C   C24       1.0  0.75209  0.32811  0.82136  1.0000
  C   C25       1.0  0.71346  0.21981  0.38506  1.0000
  C   C26       1.0  0.28654  0.71981  0.11493  1.0000
  C   C27       1.0  0.28655  0.78019  0.61494  1.0000
  C   C28       1.0  0.71346  0.28019  0.88507  1.0000
  C   C29       1.0  0.81180  0.99008  0.30974  1.0000
  C   C30       1.0  0.18820  0.49008  0.19026  1.0000
  C   C31       1.0  0.18820  0.00992  0.69026  1.0000
  C   C32       1.0  0.81180  0.50992  0.80974  1.0000
  S   S1        1.0  0.25461  0.08283  0.38421  1.0000
  S   S2        1.0  0.74538  0.58283  0.11579  1.0000
  S   S3        1.0  0.74539  0.91717  0.61579  1.0000
  S   S4        1.0  0.25461  0.41718  0.88421  1.0000
  S   S5        1.0  0.85383  0.46475  0.62029  1.0000
  S   S6        1.0  0.14618  0.96476  0.87971  1.0000
  S   S7        1.0  0.14617  0.53525  0.37971  1.0000
  S   S8        1.0  0.85383  0.03525  0.12029  1.0000
  N   N1        1.0  0.52837  0.84523  0.43695  1.0000
  N   N2        1.0  0.47162  0.34524  0.06305  1.0000
  N   N3        1.0  0.47163  0.15477  0.56305  1.0000
  N   N4        1.0  0.52837  0.65477  0.93695  1.0000
  N   N5        1.0  0.05820  0.29476  0.53250  1.0000
  N   N6        1.0  0.94180  0.79476  0.96750  1.0000
  N   N7        1.0  0.94180  0.70524  0.46750  1.0000
  N   N8        1.0  0.05820  0.20524  0.03250  1.0000
  N   N9        1.0  0.64795  0.38007  0.39575  1.0000
  N   N10       1.0  0.35205  0.88007  0.10425  1.0000
  N   N11       1.0  0.35205  0.61993  0.60425  1.0000
  N   N12       1.0  0.64796  0.11993  0.89575  1.0000
  O   O1        1.0  0.60398  0.41508  0.45686  1.0000
  O   O2        1.0  0.39601  0.91508  0.04314  1.0000
  O   O3        1.0  0.39602  0.58492  0.54314  1.0000
  O   O4        1.0  0.60399  0.08493  0.95686  1.0000
