data_image0
_chemical_formula_structural       Cd4H28C32S8N12O4
_chemical_formula_sum              "Cd4 H28 C32 S8 N12 O4"
_cell_length_a       7.93016
_cell_length_b       8.15868
_cell_length_c       18.1577
_cell_angle_alpha    93.6527
_cell_angle_beta     89.9995
_cell_angle_gamma    90.0001

_space_group_name_H-M_alt    "P 1"
_space_group_IT_number       1

loop_
  _space_group_symop_operation_xyz
  'x, y, z'

loop_
  _atom_site_type_symbol
  _atom_site_label
  _atom_site_symmetry_multiplicity
  _atom_site_fract_x
  _atom_site_fract_y
  _atom_site_fract_z
  _atom_site_occupancy
  Cd  Cd1       1.0  0.32855  0.67423  0.00203  1.0000
  Cd  Cd2       1.0  0.82855  0.32578  0.49797  1.0000
  Cd  Cd3       1.0  0.67145  0.32578  0.99797  1.0000
  Cd  Cd4       1.0  0.17145  0.67423  0.50203  1.0000
  H   H1        1.0  0.30277  0.25152  0.70899  1.0000
  H   H2        1.0  0.80277  0.74849  0.79101  1.0000
  H   H3        1.0  0.69724  0.74848  0.29101  1.0000
  H   H4        1.0  0.19723  0.25151  0.20899  1.0000
  H   H5        1.0  0.09489  0.05005  0.75403  1.0000
  H   H6        1.0  0.59489  0.94995  0.74597  1.0000
  H   H7        1.0  0.90511  0.94995  0.24597  1.0000
  H   H8        1.0  0.40511  0.05005  0.25403  1.0000
  H   H9        1.0  0.04924  0.04079  0.89120  1.0000
  H   H10       1.0  0.54924  0.95920  0.60880  1.0000
  H   H11       1.0  0.95077  0.95920  0.10880  1.0000
  H   H12       1.0  0.45077  0.04079  0.39120  1.0000
  H   H13       1.0  0.22194  0.23162  0.97683  1.0000
  H   H14       1.0  0.72194  0.76838  0.52317  1.0000
  H   H15       1.0  0.77806  0.76838  0.02317  1.0000
  H   H16       1.0  0.27806  0.23162  0.47683  1.0000
  H   H17       1.0  0.45904  0.59589  0.81978  1.0000
  H   H18       1.0  0.95905  0.40412  0.68022  1.0000
  H   H19       1.0  0.54095  0.40412  0.18022  1.0000
  H   H20       1.0  0.04095  0.59588  0.31978  1.0000
  H   H21       1.0  0.50169  0.47439  0.73568  1.0000
  H   H22       1.0  0.00169  0.52561  0.76431  1.0000
  H   H23       1.0  0.49831  0.52561  0.26431  1.0000
  H   H24       1.0  0.99831  0.47438  0.23569  1.0000
  H   H25       1.0  0.61910  0.44671  0.81818  1.0000
  H   H26       1.0  0.11910  0.55329  0.68182  1.0000
  H   H27       1.0  0.38090  0.55329  0.18182  1.0000
  H   H28       1.0  0.88090  0.44670  0.31818  1.0000
  C   C1        1.0  0.41701  0.05684  0.08403  1.0000
  C   C2        1.0  0.91702  0.94314  0.41598  1.0000
  C   C3        1.0  0.58297  0.94315  0.91597  1.0000
  C   C4        1.0  0.08297  0.05686  0.58402  1.0000
  C   C5        1.0  0.04589  0.42562  0.08282  1.0000
  C   C6        1.0  0.54588  0.57438  0.41718  1.0000
  C   C7        1.0  0.95411  0.57437  0.91718  1.0000
  C   C8        1.0  0.45412  0.42562  0.58282  1.0000
  C   C9        1.0  0.36957  0.34899  0.81693  1.0000
  C   C10       1.0  0.86957  0.65101  0.68307  1.0000
  C   C11       1.0  0.63043  0.65101  0.18307  1.0000
  C   C12       1.0  0.13043  0.34899  0.31693  1.0000
  C   C13       1.0  0.27936  0.24404  0.76780  1.0000
  C   C14       1.0  0.77936  0.75597  0.73220  1.0000
  C   C15       1.0  0.72064  0.75596  0.23220  1.0000
  C   C16       1.0  0.22064  0.24403  0.26780  1.0000
  C   C17       1.0  0.16379  0.13198  0.79309  1.0000
  C   C18       1.0  0.66379  0.86802  0.70692  1.0000
  C   C19       1.0  0.83622  0.86801  0.20691  1.0000
  C   C20       1.0  0.33621  0.13198  0.29309  1.0000
  C   C21       1.0  0.13901  0.12543  0.86892  1.0000
  C   C22       1.0  0.63901  0.87457  0.63109  1.0000
  C   C23       1.0  0.86099  0.87457  0.13109  1.0000
  C   C24       1.0  0.36099  0.12543  0.36891  1.0000
  C   C25       1.0  0.23048  0.22856  0.91706  1.0000
  C   C26       1.0  0.73048  0.77145  0.58294  1.0000
  C   C27       1.0  0.76952  0.77145  0.08294  1.0000
  C   C28       1.0  0.26953  0.22855  0.41706  1.0000
  C   C29       1.0  0.49397  0.47351  0.79577  1.0000
  C   C30       1.0  0.99398  0.52650  0.70423  1.0000
  C   C31       1.0  0.50602  0.52650  0.20423  1.0000
  C   C32       1.0  0.00602  0.47350  0.29577  1.0000
  S   S1        1.0  0.29622  0.91041  0.11151  1.0000
  S   S2        1.0  0.79621  0.08959  0.38849  1.0000
  S   S3        1.0  0.70378  0.08959  0.88849  1.0000
  S   S4        1.0  0.20378  0.91042  0.61151  1.0000
  S   S5        1.0  0.90493  0.28933  0.10288  1.0000
  S   S6        1.0  0.40493  0.71067  0.39712  1.0000
  S   S7        1.0  0.09507  0.71066  0.89712  1.0000
  S   S8        1.0  0.59507  0.28933  0.60288  1.0000
  N   N1        1.0  0.50201  0.16635  0.06606  1.0000
  N   N2        1.0  0.00201  0.83366  0.43394  1.0000
  N   N3        1.0  0.49798  0.83366  0.93394  1.0000
  N   N4        1.0  0.99798  0.16634  0.56606  1.0000
  N   N5        1.0  0.15064  0.52341  0.07075  1.0000
  N   N6        1.0  0.65064  0.47660  0.42925  1.0000
  N   N7        1.0  0.84937  0.47659  0.92925  1.0000
  N   N8        1.0  0.34938  0.52341  0.57075  1.0000
  N   N9        1.0  0.34253  0.33630  0.89079  1.0000
  N   N10       1.0  0.84253  0.66371  0.60921  1.0000
  N   N11       1.0  0.65747  0.66371  0.10921  1.0000
  N   N12       1.0  0.15747  0.33629  0.39079  1.0000
  O   O1        1.0  0.43234  0.43192  0.93846  1.0000
  O   O2        1.0  0.93234  0.56808  0.56154  1.0000
  O   O3        1.0  0.56767  0.56808  0.06154  1.0000
  O   O4        1.0  0.06767  0.43191  0.43847  1.0000
