data_image0
_chemical_formula_structural       Cd8H20C8Br4N40O4
_chemical_formula_sum              "Cd8 H20 C8 Br4 N40 O4"
_cell_length_a       7.06168
_cell_length_b       11.2756
_cell_length_c       13.5546
_cell_angle_alpha    90
_cell_angle_beta     89.9999
_cell_angle_gamma    105.285

_space_group_name_H-M_alt    "P 1"
_space_group_IT_number       1

loop_
  _space_group_symop_operation_xyz
  'x, y, z'

loop_
  _atom_site_type_symbol
  _atom_site_label
  _atom_site_symmetry_multiplicity
  _atom_site_fract_x
  _atom_site_fract_y
  _atom_site_fract_z
  _atom_site_occupancy
  Cd  Cd1       1.0  0.41610  0.32635  0.98236  1.0000
  Cd  Cd2       1.0  0.08390  0.67365  0.48236  1.0000
  Cd  Cd3       1.0  0.58390  0.67365  0.01764  1.0000
  Cd  Cd4       1.0  0.91610  0.32635  0.51764  1.0000
  Cd  Cd5       1.0  0.60538  0.17905  0.74607  1.0000
  Cd  Cd6       1.0  0.89462  0.82095  0.24607  1.0000
  Cd  Cd7       1.0  0.39462  0.82095  0.25393  1.0000
  Cd  Cd8       1.0  0.10538  0.17905  0.75393  1.0000
  H   H1        1.0  0.33501  0.10798  0.89000  1.0000
  H   H2        1.0  0.16499  0.89202  0.39000  1.0000
  H   H3        1.0  0.66499  0.89202  0.11000  1.0000
  H   H4        1.0  0.83501  0.10798  0.61000  1.0000
  H   H5        1.0  0.71369  0.08723  0.16521  1.0000
  H   H6        1.0  0.78631  0.91277  0.66521  1.0000
  H   H7        1.0  0.28631  0.91277  0.83479  1.0000
  H   H8        1.0  0.21369  0.08723  0.33479  1.0000
  H   H9        1.0  0.69922  0.15942  0.05832  1.0000
  H   H10       1.0  0.80078  0.84058  0.55832  1.0000
  H   H11       1.0  0.30078  0.84058  0.94168  1.0000
  H   H12       1.0  0.19922  0.15942  0.44168  1.0000
  H   H13       1.0  0.08198  0.40337  0.14536  1.0000
  H   H14       1.0  0.41802  0.59664  0.64536  1.0000
  H   H15       1.0  0.91802  0.59664  0.85464  1.0000
  H   H16       1.0  0.58198  0.40337  0.35464  1.0000
  H   H17       1.0  0.83959  0.41019  0.14529  1.0000
  H   H18       1.0  0.66041  0.58981  0.64529  1.0000
  H   H19       1.0  0.16041  0.58981  0.85471  1.0000
  H   H20       1.0  0.33959  0.41019  0.35471  1.0000
  C   C1        1.0  0.43686  0.07506  0.11758  1.0000
  C   C2        1.0  0.06314  0.92494  0.61758  1.0000
  C   C3        1.0  0.56314  0.92494  0.88241  1.0000
  C   C4        1.0  0.93686  0.07506  0.38242  1.0000
  C   C5        1.0  0.93317  0.34934  0.01735  1.0000
  C   C6        1.0  0.56683  0.65066  0.51735  1.0000
  C   C7        1.0  0.06683  0.65066  0.98265  1.0000
  C   C8        1.0  0.43317  0.34934  0.48265  1.0000
  Br  Br1       1.0  0.51123  0.52904  0.85270  1.0000
  Br  Br2       1.0  0.98878  0.47096  0.35270  1.0000
  Br  Br3       1.0  0.48878  0.47096  0.14730  1.0000
  Br  Br4       1.0  0.01123  0.52904  0.64730  1.0000
  N   N1        1.0  0.32749  0.14459  0.07776  1.0000
  N   N2        1.0  0.17251  0.85541  0.57776  1.0000
  N   N3        1.0  0.67250  0.85541  0.92224  1.0000
  N   N4        1.0  0.82749  0.14459  0.42224  1.0000
  N   N5        1.0  0.13962  0.09324  0.10645  1.0000
  N   N6        1.0  0.36038  0.90676  0.60645  1.0000
  N   N7        1.0  0.86038  0.90676  0.89355  1.0000
  N   N8        1.0  0.63962  0.09324  0.39355  1.0000
  N   N9        1.0  0.13771  0.99798  0.16183  1.0000
  N   N10       1.0  0.36229  0.00202  0.66183  1.0000
  N   N11       1.0  0.86229  0.00202  0.83817  1.0000
  N   N12       1.0  0.63771  0.99798  0.33817  1.0000
  N   N13       1.0  0.32139  0.98351  0.17014  1.0000
  N   N14       1.0  0.17861  0.01649  0.67014  1.0000
  N   N15       1.0  0.67861  0.01649  0.82986  1.0000
  N   N16       1.0  0.82139  0.98351  0.32986  1.0000
  N   N17       1.0  0.63400  0.08755  0.10265  1.0000
  N   N18       1.0  0.86600  0.91245  0.60265  1.0000
  N   N19       1.0  0.36600  0.91245  0.89735  1.0000
  N   N20       1.0  0.13400  0.08755  0.39735  1.0000
  N   N21       1.0  0.76519  0.32825  0.96330  1.0000
  N   N22       1.0  0.73481  0.67175  0.46330  1.0000
  N   N23       1.0  0.23481  0.67175  0.03670  1.0000
  N   N24       1.0  0.26519  0.32825  0.53670  1.0000
  N   N25       1.0  0.81623  0.30024  0.87205  1.0000
  N   N26       1.0  0.68377  0.69976  0.37205  1.0000
  N   N27       1.0  0.18377  0.69976  0.12795  1.0000
  N   N28       1.0  0.31623  0.30024  0.62795  1.0000
  N   N29       1.0  0.00146  0.30230  0.87080  1.0000
  N   N30       1.0  0.49854  0.69770  0.37080  1.0000
  N   N31       1.0  0.99854  0.69770  0.12920  1.0000
  N   N32       1.0  0.50146  0.30230  0.62920  1.0000
  N   N33       1.0  0.08148  0.33233  0.96064  1.0000
  N   N34       1.0  0.41852  0.66767  0.46064  1.0000
  N   N35       1.0  0.91852  0.66767  0.03936  1.0000
  N   N36       1.0  0.58149  0.33233  0.53936  1.0000
  N   N37       1.0  0.94600  0.37624  0.11453  1.0000
  N   N38       1.0  0.55400  0.62376  0.61454  1.0000
  N   N39       1.0  0.05400  0.62376  0.88547  1.0000
  N   N40       1.0  0.44600  0.37624  0.38547  1.0000
  O   O1        1.0  0.36340  0.18631  0.85428  1.0000
  O   O2        1.0  0.13660  0.81369  0.35428  1.0000
  O   O3        1.0  0.63660  0.81369  0.14572  1.0000
  O   O4        1.0  0.86340  0.18631  0.64572  1.0000
