data_image0
_chemical_formula_structural       K2H34C24O2
_chemical_formula_sum              "K2 H34 C24 O2"
_cell_length_a       6.46281
_cell_length_b       9.80279
_cell_length_c       9.83268
_cell_angle_alpha    101.572
_cell_angle_beta     90.001
_cell_angle_gamma    90

_space_group_name_H-M_alt    "P 1"
_space_group_IT_number       1

loop_
  _space_group_symop_operation_xyz
  'x, y, z'

loop_
  _atom_site_type_symbol
  _atom_site_label
  _atom_site_symmetry_multiplicity
  _atom_site_fract_x
  _atom_site_fract_y
  _atom_site_fract_z
  _atom_site_occupancy
  K   K1        1.0  0.35827  0.35732  0.01090  1.0000
  K   K2        1.0  0.85826  0.64267  0.98908  1.0000
  H   H1        1.0  0.04297  0.97116  0.20235  1.0000
  H   H2        1.0  0.54297  0.02884  0.79764  1.0000
  H   H3        1.0  0.96348  0.00150  0.96360  1.0000
  H   H4        1.0  0.46348  0.99851  0.03639  1.0000
  H   H5        1.0  0.12950  0.84591  0.76243  1.0000
  H   H6        1.0  0.62949  0.15410  0.23756  1.0000
  H   H7        1.0  0.38799  0.68437  0.27517  1.0000
  H   H8        1.0  0.88800  0.31563  0.72484  1.0000
  H   H9        1.0  0.01624  0.70126  0.34069  1.0000
  H   H10       1.0  0.51625  0.29874  0.65930  1.0000
  H   H11       1.0  0.03411  0.88520  0.39149  1.0000
  H   H12       1.0  0.53413  0.11480  0.60850  1.0000
  H   H13       1.0  0.17118  0.77767  0.48497  1.0000
  H   H14       1.0  0.67119  0.22232  0.51502  1.0000
  H   H15       1.0  0.39764  0.00309  0.35944  1.0000
  H   H16       1.0  0.89766  0.99691  0.64057  1.0000
  H   H17       1.0  0.60125  0.89678  0.27555  1.0000
  H   H18       1.0  0.10127  0.10322  0.72446  1.0000
  H   H19       1.0  0.52611  0.88482  0.44676  1.0000
  H   H20       1.0  0.02612  0.11518  0.55325  1.0000
  H   H21       1.0  0.49634  0.55780  0.80322  1.0000
  H   H22       1.0  0.99634  0.44220  0.19679  1.0000
  H   H23       1.0  0.66002  0.77230  0.74843  1.0000
  H   H24       1.0  0.16000  0.22770  0.25159  1.0000
  H   H25       1.0  0.45024  0.79181  0.63877  1.0000
  H   H26       1.0  0.95020  0.20819  0.36124  1.0000
  H   H27       1.0  0.61580  0.64534  0.59365  1.0000
  H   H28       1.0  0.11576  0.35466  0.40637  1.0000
  H   H29       1.0  0.12814  0.61563  0.62541  1.0000
  H   H30       1.0  0.62813  0.38438  0.37458  1.0000
  H   H31       1.0  0.14694  0.48074  0.72190  1.0000
  H   H32       1.0  0.64692  0.51926  0.27809  1.0000
  H   H33       1.0  0.31152  0.47999  0.57650  1.0000
  H   H34       1.0  0.81150  0.52001  0.42350  1.0000
  C   C1        1.0  0.34993  0.70731  0.02383  1.0000
  C   C2        1.0  0.84993  0.29269  0.97617  1.0000
  C   C3        1.0  0.25165  0.79869  0.13870  1.0000
  C   C4        1.0  0.75165  0.20132  0.86130  1.0000
  C   C5        1.0  0.11520  0.90174  0.11436  1.0000
  C   C6        1.0  0.61520  0.09825  0.88563  1.0000
  C   C7        1.0  0.06964  0.92013  0.97992  1.0000
  C   C8        1.0  0.56964  0.07987  0.02007  1.0000
  C   C9        1.0  0.16382  0.83183  0.86766  1.0000
  C   C10       1.0  0.66380  0.16817  0.13233  1.0000
  C   C11       1.0  0.30018  0.72623  0.88615  1.0000
  C   C12       1.0  0.80018  0.27378  0.11385  1.0000
  C   C13       1.0  0.30996  0.78568  0.28478  1.0000
  C   C14       1.0  0.80997  0.21432  0.71521  1.0000
  C   C15       1.0  0.12238  0.78779  0.38037  1.0000
  C   C16       1.0  0.62240  0.21220  0.61963  1.0000
  C   C17       1.0  0.46787  0.89887  0.34538  1.0000
  C   C18       1.0  0.96788  0.10113  0.65463  1.0000
  C   C19       1.0  0.39906  0.63231  0.76165  1.0000
  C   C20       1.0  0.89905  0.36769  0.23835  1.0000
  C   C21       1.0  0.53979  0.71453  0.68120  1.0000
  C   C22       1.0  0.03976  0.28547  0.31882  1.0000
  C   C23       1.0  0.23707  0.54739  0.66609  1.0000
  C   C24       1.0  0.73705  0.45262  0.33390  1.0000
  O   O1        1.0  0.47950  0.61055  0.04452  1.0000
  O   O2        1.0  0.97950  0.38944  0.95548  1.0000
