data_image0
_chemical_formula_structural       Cs2Cu6H48C24S4I8O8
_chemical_formula_sum              "Cs2 Cu6 H48 C24 S4 I8 O8"
_cell_length_a       10.37
_cell_length_b       10.37
_cell_length_c       13.9789
_cell_angle_alpha    72.4744
_cell_angle_beta     72.4747
_cell_angle_gamma    70.0016

_space_group_name_H-M_alt    "P 1"
_space_group_IT_number       1

loop_
  _space_group_symop_operation_xyz
  'x, y, z'

loop_
  _atom_site_type_symbol
  _atom_site_label
  _atom_site_symmetry_multiplicity
  _atom_site_fract_x
  _atom_site_fract_y
  _atom_site_fract_z
  _atom_site_occupancy
  Cs  Cs1       1.0  0.76597  0.76597  0.21660  1.0000
  Cs  Cs2       1.0  0.23403  0.23403  0.78340  1.0000
  Cu  Cu1       1.0  0.37527  0.62473  0.50000  1.0000
  Cu  Cu2       1.0  0.62473  0.37527  0.50000  1.0000
  Cu  Cu3       1.0  0.35574  0.63835  0.30352  1.0000
  Cu  Cu4       1.0  0.36165  0.64426  0.69648  1.0000
  Cu  Cu5       1.0  0.64426  0.36165  0.69648  1.0000
  Cu  Cu6       1.0  0.63835  0.35574  0.30352  1.0000
  H   H1        1.0  0.72436  0.90927  0.52102  1.0000
  H   H2        1.0  0.09073  0.27563  0.47898  1.0000
  H   H3        1.0  0.27563  0.09073  0.47898  1.0000
  H   H4        1.0  0.90927  0.72436  0.52102  1.0000
  H   H5        1.0  0.81831  0.02832  0.43378  1.0000
  H   H6        1.0  0.97167  0.18170  0.56622  1.0000
  H   H7        1.0  0.18170  0.97167  0.56621  1.0000
  H   H8        1.0  0.02832  0.81831  0.43378  1.0000
  H   H9        1.0  0.57950  0.95718  0.38962  1.0000
  H   H10       1.0  0.04282  0.42050  0.61038  1.0000
  H   H11       1.0  0.42050  0.04282  0.61038  1.0000
  H   H12       1.0  0.95718  0.57950  0.38962  1.0000
  H   H13       1.0  0.55328  0.09954  0.44641  1.0000
  H   H14       1.0  0.90046  0.44672  0.55359  1.0000
  H   H15       1.0  0.44672  0.90046  0.55359  1.0000
  H   H16       1.0  0.09954  0.55328  0.44642  1.0000
  H   H17       1.0  0.43092  0.26142  0.24750  1.0000
  H   H18       1.0  0.73859  0.56908  0.75250  1.0000
  H   H19       1.0  0.56908  0.73859  0.75250  1.0000
  H   H20       1.0  0.26141  0.43092  0.24750  1.0000
  H   H21       1.0  0.47253  0.07645  0.25925  1.0000
  H   H22       1.0  0.92355  0.52747  0.74075  1.0000
  H   H23       1.0  0.52747  0.92355  0.74075  1.0000
  H   H24       1.0  0.07645  0.47254  0.25925  1.0000
  H   H25       1.0  0.60534  0.26994  0.06983  1.0000
  H   H26       1.0  0.73006  0.39465  0.93017  1.0000
  H   H27       1.0  0.39466  0.73006  0.93017  1.0000
  H   H28       1.0  0.26994  0.60535  0.06983  1.0000
  H   H29       1.0  0.44549  0.23510  0.07988  1.0000
  H   H30       1.0  0.76490  0.55450  0.92012  1.0000
  H   H31       1.0  0.55451  0.76490  0.92012  1.0000
  H   H32       1.0  0.23511  0.44550  0.07988  1.0000
  H   H33       1.0  0.59193  0.14125  0.92795  1.0000
  H   H34       1.0  0.85875  0.40807  0.07205  1.0000
  H   H35       1.0  0.40807  0.85875  0.07205  1.0000
  H   H36       1.0  0.14125  0.59193  0.92795  1.0000
  H   H37       1.0  0.75698  0.13627  0.94608  1.0000
  H   H38       1.0  0.86373  0.24301  0.05392  1.0000
  H   H39       1.0  0.24302  0.86373  0.05392  1.0000
  H   H40       1.0  0.13627  0.75698  0.94608  1.0000
  H   H41       1.0  0.66211  0.87586  0.97096  1.0000
  H   H42       1.0  0.12414  0.33788  0.02904  1.0000
  H   H43       1.0  0.33788  0.12414  0.02904  1.0000
  H   H44       1.0  0.87586  0.66212  0.97096  1.0000
  H   H45       1.0  0.76456  0.95727  0.85551  1.0000
  H   H46       1.0  0.04273  0.23544  0.14449  1.0000
  H   H47       1.0  0.23544  0.04273  0.14449  1.0000
  H   H48       1.0  0.95727  0.76456  0.85551  1.0000
  C   C1        1.0  0.75876  0.95553  0.43847  1.0000
  C   C2        1.0  0.04447  0.24124  0.56153  1.0000
  C   C3        1.0  0.24124  0.04447  0.56153  1.0000
  C   C4        1.0  0.95553  0.75876  0.43847  1.0000
  C   C5        1.0  0.62908  0.03236  0.39505  1.0000
  C   C6        1.0  0.96764  0.37092  0.60495  1.0000
  C   C7        1.0  0.37092  0.96764  0.60495  1.0000
  C   C8        1.0  0.03236  0.62908  0.39505  1.0000
  C   C9        1.0  0.51185  0.16976  0.22283  1.0000
  C   C10       1.0  0.83024  0.48815  0.77717  1.0000
  C   C11       1.0  0.48815  0.83024  0.77717  1.0000
  C   C12       1.0  0.16976  0.51185  0.22283  1.0000
  C   C13       1.0  0.54478  0.19169  0.10708  1.0000
  C   C14       1.0  0.80831  0.45522  0.89292  1.0000
  C   C15       1.0  0.45522  0.80832  0.89292  1.0000
  C   C16       1.0  0.19169  0.54478  0.10708  1.0000
  C   C17       1.0  0.67625  0.07874  0.96978  1.0000
  C   C18       1.0  0.92126  0.32375  0.03022  1.0000
  C   C19       1.0  0.32375  0.92126  0.03022  1.0000
  C   C20       1.0  0.07874  0.67625  0.96978  1.0000
  C   C21       1.0  0.73933  0.93835  0.94039  1.0000
  C   C22       1.0  0.06165  0.26066  0.05961  1.0000
  C   C23       1.0  0.26067  0.06165  0.05961  1.0000
  C   C24       1.0  0.93835  0.73933  0.94039  1.0000
  S   S1        1.0  0.66869  0.14368  0.26773  1.0000
  S   S2        1.0  0.85632  0.33131  0.73227  1.0000
  S   S3        1.0  0.33131  0.85632  0.73228  1.0000
  S   S4        1.0  0.14368  0.66869  0.26772  1.0000
  I   I1        1.0  0.56049  0.56048  0.15033  1.0000
  I   I2        1.0  0.43952  0.43952  0.84967  1.0000
  I   I3        1.0  0.38949  0.38949  0.44931  1.0000
  I   I4        1.0  0.61050  0.61050  0.55069  1.0000
  I   I5        1.0  0.34873  0.85822  0.35388  1.0000
  I   I6        1.0  0.14178  0.65127  0.64612  1.0000
  I   I7        1.0  0.65127  0.14178  0.64612  1.0000
  I   I8        1.0  0.85822  0.34873  0.35388  1.0000
  O   O1        1.0  0.84572  0.84572  0.38637  1.0000
  O   O2        1.0  0.15428  0.15428  0.61363  1.0000
  O   O3        1.0  0.62107  0.06021  0.07870  1.0000
  O   O4        1.0  0.93978  0.37893  0.92130  1.0000
  O   O5        1.0  0.37893  0.93979  0.92130  1.0000
  O   O6        1.0  0.06022  0.62107  0.07870  1.0000
  O   O7        1.0  0.86396  0.86396  0.97905  1.0000
  O   O8        1.0  0.13604  0.13604  0.02095  1.0000
