data_image0
_chemical_formula_structural       Mn2H32C32N4O8
_chemical_formula_sum              "Mn2 H32 C32 N4 O8"
_cell_length_a       4.35035
_cell_length_b       10.551
_cell_length_c       15.5637
_cell_angle_alpha    95.704
_cell_angle_beta     89.9998
_cell_angle_gamma    90

_space_group_name_H-M_alt    "P 1"
_space_group_IT_number       1

loop_
  _space_group_symop_operation_xyz
  'x, y, z'

loop_
  _atom_site_type_symbol
  _atom_site_label
  _atom_site_symmetry_multiplicity
  _atom_site_fract_x
  _atom_site_fract_y
  _atom_site_fract_z
  _atom_site_occupancy
  Mn  Mn1       1.0  0.50000  0.50000  0.50000  1.0000
  Mn  Mn2       1.0  0.00001  0.50000  1.00000  1.0000
  H   H1        1.0  0.26497  0.43367  0.76118  1.0000
  H   H2        1.0  0.76497  0.56633  0.73882  1.0000
  H   H3        1.0  0.73503  0.56633  0.23882  1.0000
  H   H4        1.0  0.23503  0.43367  0.26118  1.0000
  H   H5        1.0  0.58012  0.05743  0.75341  1.0000
  H   H6        1.0  0.08012  0.94257  0.74659  1.0000
  H   H7        1.0  0.41987  0.94257  0.24659  1.0000
  H   H8        1.0  0.91988  0.05743  0.25341  1.0000
  H   H9        1.0  0.62914  0.17687  0.62358  1.0000
  H   H10       1.0  0.12914  0.82313  0.87642  1.0000
  H   H11       1.0  0.37085  0.82313  0.37642  1.0000
  H   H12       1.0  0.87086  0.17687  0.12358  1.0000
  H   H13       1.0  0.77779  0.16528  0.96651  1.0000
  H   H14       1.0  0.27779  0.83472  0.53350  1.0000
  H   H15       1.0  0.22221  0.83472  0.03350  1.0000
  H   H16       1.0  0.72221  0.16528  0.46650  1.0000
  H   H17       1.0  0.08209  0.06510  0.92622  1.0000
  H   H18       1.0  0.58209  0.93490  0.57378  1.0000
  H   H19       1.0  0.91790  0.93490  0.07378  1.0000
  H   H20       1.0  0.41790  0.06510  0.42622  1.0000
  H   H21       1.0  0.69916  0.02472  0.89588  1.0000
  H   H22       1.0  0.19915  0.97528  0.60412  1.0000
  H   H23       1.0  0.30084  0.97528  0.10412  1.0000
  H   H24       1.0  0.80085  0.02472  0.39588  1.0000
  H   H25       1.0  0.43359  0.37798  0.90070  1.0000
  H   H26       1.0  0.93359  0.62202  0.59930  1.0000
  H   H27       1.0  0.56640  0.62202  0.09930  1.0000
  H   H28       1.0  0.06641  0.37798  0.40070  1.0000
  H   H29       1.0  0.26362  0.26708  0.95226  1.0000
  H   H30       1.0  0.76362  0.73292  0.54774  1.0000
  H   H31       1.0  0.73638  0.73292  0.04774  1.0000
  H   H32       1.0  0.23638  0.26708  0.45226  1.0000
  C   C1        1.0  0.95428  0.31151  0.68428  1.0000
  C   C2        1.0  0.45427  0.68849  0.81572  1.0000
  C   C3        1.0  0.04573  0.68849  0.31572  1.0000
  C   C4        1.0  0.54573  0.31151  0.18428  1.0000
  C   C5        1.0  0.11253  0.35163  0.76024  1.0000
  C   C6        1.0  0.61253  0.64837  0.73976  1.0000
  C   C7        1.0  0.88747  0.64837  0.23976  1.0000
  C   C8        1.0  0.38748  0.35163  0.26024  1.0000
  C   C9        1.0  0.07663  0.28783  0.83406  1.0000
  C   C10       1.0  0.57663  0.71217  0.66594  1.0000
  C   C11       1.0  0.92336  0.71217  0.16594  1.0000
  C   C12       1.0  0.42337  0.28783  0.33406  1.0000
  C   C13       1.0  0.88647  0.17918  0.83188  1.0000
  C   C14       1.0  0.38647  0.82082  0.66813  1.0000
  C   C15       1.0  0.11353  0.82082  0.16813  1.0000
  C   C16       1.0  0.61353  0.17918  0.33187  1.0000
  C   C17       1.0  0.72976  0.14051  0.75503  1.0000
  C   C18       1.0  0.22976  0.85949  0.74497  1.0000
  C   C19       1.0  0.27023  0.85949  0.24497  1.0000
  C   C20       1.0  0.77024  0.14051  0.25503  1.0000
  C   C21       1.0  0.75868  0.20569  0.68208  1.0000
  C   C22       1.0  0.25869  0.79431  0.81792  1.0000
  C   C23       1.0  0.24131  0.79431  0.31792  1.0000
  C   C24       1.0  0.74132  0.20569  0.18208  1.0000
  C   C25       1.0  0.98906  0.38280  0.60694  1.0000
  C   C26       1.0  0.48907  0.61720  0.89306  1.0000
  C   C27       1.0  0.01093  0.61720  0.39306  1.0000
  C   C28       1.0  0.51094  0.38280  0.10694  1.0000
  C   C29       1.0  0.85836  0.10499  0.90913  1.0000
  C   C30       1.0  0.35836  0.89501  0.59087  1.0000
  C   C31       1.0  0.14163  0.89501  0.09087  1.0000
  C   C32       1.0  0.64164  0.10499  0.40913  1.0000
  N   N1        1.0  0.22668  0.33526  0.91144  1.0000
  N   N2        1.0  0.72668  0.66474  0.58856  1.0000
  N   N3        1.0  0.77332  0.66474  0.08856  1.0000
  N   N4        1.0  0.27332  0.33526  0.41144  1.0000
  O   O1        1.0  0.79920  0.35916  0.54437  1.0000
  O   O2        1.0  0.29920  0.64084  0.95563  1.0000
  O   O3        1.0  0.20080  0.64084  0.45563  1.0000
  O   O4        1.0  0.70080  0.35916  0.04437  1.0000
  O   O5        1.0  0.20357  0.46593  0.60679  1.0000
  O   O6        1.0  0.70358  0.53407  0.89321  1.0000
  O   O7        1.0  0.79642  0.53407  0.39321  1.0000
  O   O8        1.0  0.29643  0.46593  0.10679  1.0000
