data_image0
_chemical_formula_structural       Ni2H32C32N4O8
_chemical_formula_sum              "Ni2 H32 C32 N4 O8"
_cell_length_a       4.22462
_cell_length_b       10.591
_cell_length_c       15.389
_cell_angle_alpha    96.6631
_cell_angle_beta     90
_cell_angle_gamma    90.0003

_space_group_name_H-M_alt    "P 1"
_space_group_IT_number       1

loop_
  _space_group_symop_operation_xyz
  'x, y, z'

loop_
  _atom_site_type_symbol
  _atom_site_label
  _atom_site_symmetry_multiplicity
  _atom_site_fract_x
  _atom_site_fract_y
  _atom_site_fract_z
  _atom_site_occupancy
  Ni  Ni1       1.0  0.50000  0.50000  0.50000  1.0000
  Ni  Ni2       1.0  1.00000  0.50000  1.00000  1.0000
  H   H1        1.0  0.25767  0.43938  0.76504  1.0000
  H   H2        1.0  0.75766  0.56062  0.73495  1.0000
  H   H3        1.0  0.74234  0.56062  0.23496  1.0000
  H   H4        1.0  0.24234  0.43938  0.26505  1.0000
  H   H5        1.0  0.57598  0.05704  0.75010  1.0000
  H   H6        1.0  0.07599  0.94296  0.74990  1.0000
  H   H7        1.0  0.42402  0.94296  0.24990  1.0000
  H   H8        1.0  0.92401  0.05704  0.25010  1.0000
  H   H9        1.0  0.62842  0.17567  0.62004  1.0000
  H   H10       1.0  0.12843  0.82434  0.87996  1.0000
  H   H11       1.0  0.37158  0.82434  0.37996  1.0000
  H   H12       1.0  0.87157  0.17566  0.12004  1.0000
  H   H13       1.0  0.74905  0.16573  0.96714  1.0000
  H   H14       1.0  0.24905  0.83427  0.53286  1.0000
  H   H15       1.0  0.25095  0.83427  0.03286  1.0000
  H   H16       1.0  0.75096  0.16572  0.46714  1.0000
  H   H17       1.0  0.07850  0.07253  0.92855  1.0000
  H   H18       1.0  0.57850  0.92747  0.57145  1.0000
  H   H19       1.0  0.92150  0.92747  0.07145  1.0000
  H   H20       1.0  0.42150  0.07253  0.42855  1.0000
  H   H21       1.0  0.69369  0.02436  0.89270  1.0000
  H   H22       1.0  0.19369  0.97564  0.60730  1.0000
  H   H23       1.0  0.30631  0.97564  0.10730  1.0000
  H   H24       1.0  0.80631  0.02436  0.39270  1.0000
  H   H25       1.0  0.42996  0.38190  0.90719  1.0000
  H   H26       1.0  0.92996  0.61810  0.59281  1.0000
  H   H27       1.0  0.57004  0.61810  0.09281  1.0000
  H   H28       1.0  0.07004  0.38190  0.40719  1.0000
  H   H29       1.0  0.23258  0.27782  0.95910  1.0000
  H   H30       1.0  0.73258  0.72218  0.54090  1.0000
  H   H31       1.0  0.76742  0.72218  0.04090  1.0000
  H   H32       1.0  0.26743  0.27782  0.45910  1.0000
  C   C1        1.0  0.95185  0.31367  0.68427  1.0000
  C   C2        1.0  0.45185  0.68633  0.81573  1.0000
  C   C3        1.0  0.04815  0.68633  0.31573  1.0000
  C   C4        1.0  0.54814  0.31367  0.18427  1.0000
  C   C5        1.0  0.10526  0.35620  0.76257  1.0000
  C   C6        1.0  0.60526  0.64380  0.73743  1.0000
  C   C7        1.0  0.89475  0.64380  0.23743  1.0000
  C   C8        1.0  0.39473  0.35620  0.26257  1.0000
  C   C9        1.0  0.06366  0.29384  0.83693  1.0000
  C   C10       1.0  0.56366  0.70617  0.66307  1.0000
  C   C11       1.0  0.93634  0.70616  0.16307  1.0000
  C   C12       1.0  0.43634  0.29383  0.33693  1.0000
  C   C13       1.0  0.87663  0.18283  0.83261  1.0000
  C   C14       1.0  0.37663  0.81717  0.66739  1.0000
  C   C15       1.0  0.12337  0.81717  0.16739  1.0000
  C   C16       1.0  0.62337  0.18283  0.33261  1.0000
  C   C17       1.0  0.72461  0.14168  0.75335  1.0000
  C   C18       1.0  0.22461  0.85832  0.74664  1.0000
  C   C19       1.0  0.27539  0.85832  0.24664  1.0000
  C   C20       1.0  0.77539  0.14168  0.25335  1.0000
  C   C21       1.0  0.75592  0.20638  0.68025  1.0000
  C   C22       1.0  0.25593  0.79362  0.81975  1.0000
  C   C23       1.0  0.24408  0.79362  0.31975  1.0000
  C   C24       1.0  0.74407  0.20638  0.18025  1.0000
  C   C25       1.0  0.98837  0.38418  0.60618  1.0000
  C   C26       1.0  0.48837  0.61582  0.89382  1.0000
  C   C27       1.0  0.01163  0.61582  0.39382  1.0000
  C   C28       1.0  0.51162  0.38418  0.10618  1.0000
  C   C29       1.0  0.84603  0.10771  0.90931  1.0000
  C   C30       1.0  0.34603  0.89229  0.59069  1.0000
  C   C31       1.0  0.15397  0.89229  0.09069  1.0000
  C   C32       1.0  0.65398  0.10771  0.40931  1.0000
  N   N1        1.0  0.21018  0.34402  0.91651  1.0000
  N   N2        1.0  0.71018  0.65598  0.58349  1.0000
  N   N3        1.0  0.78982  0.65598  0.08349  1.0000
  N   N4        1.0  0.28982  0.34402  0.41651  1.0000
  O   O1        1.0  0.79145  0.35896  0.54337  1.0000
  O   O2        1.0  0.29145  0.64104  0.95663  1.0000
  O   O3        1.0  0.20855  0.64104  0.45664  1.0000
  O   O4        1.0  0.70855  0.35896  0.04337  1.0000
  O   O5        1.0  0.21048  0.46636  0.60709  1.0000
  O   O6        1.0  0.71048  0.53364  0.89291  1.0000
  O   O7        1.0  0.78952  0.53364  0.39291  1.0000
  O   O8        1.0  0.28952  0.46636  0.10709  1.0000
