data_image0
_chemical_formula_structural       Zn2H32C32N4O8
_chemical_formula_sum              "Zn2 H32 C32 N4 O8"
_cell_length_a       4.29019
_cell_length_b       10.5488
_cell_length_c       15.4411
_cell_angle_alpha    96.2882
_cell_angle_beta     90
_cell_angle_gamma    90

_space_group_name_H-M_alt    "P 1"
_space_group_IT_number       1

loop_
  _space_group_symop_operation_xyz
  'x, y, z'

loop_
  _atom_site_type_symbol
  _atom_site_label
  _atom_site_symmetry_multiplicity
  _atom_site_fract_x
  _atom_site_fract_y
  _atom_site_fract_z
  _atom_site_occupancy
  Zn  Zn1       1.0  0.50000  0.50000  0.50000  1.0000
  Zn  Zn2       1.0  0.00000  0.50000  0.00000  1.0000
  H   H1        1.0  0.25849  0.43596  0.76461  1.0000
  H   H2        1.0  0.75849  0.56404  0.73540  1.0000
  H   H3        1.0  0.74151  0.56404  0.23540  1.0000
  H   H4        1.0  0.24151  0.43596  0.26461  1.0000
  H   H5        1.0  0.57726  0.05559  0.75260  1.0000
  H   H6        1.0  0.07726  0.94441  0.74740  1.0000
  H   H7        1.0  0.42274  0.94441  0.24740  1.0000
  H   H8        1.0  0.92274  0.05559  0.25260  1.0000
  H   H9        1.0  0.62879  0.17457  0.62244  1.0000
  H   H10       1.0  0.12878  0.82543  0.87755  1.0000
  H   H11       1.0  0.37122  0.82543  0.37756  1.0000
  H   H12       1.0  0.87121  0.17457  0.12244  1.0000
  H   H13       1.0  0.75602  0.16419  0.96831  1.0000
  H   H14       1.0  0.25602  0.83581  0.53168  1.0000
  H   H15       1.0  0.24398  0.83581  0.03169  1.0000
  H   H16       1.0  0.74398  0.16419  0.46831  1.0000
  H   H17       1.0  0.07696  0.06918  0.92946  1.0000
  H   H18       1.0  0.57696  0.93082  0.57054  1.0000
  H   H19       1.0  0.92304  0.93082  0.07054  1.0000
  H   H20       1.0  0.42304  0.06918  0.42946  1.0000
  H   H21       1.0  0.69582  0.02250  0.89506  1.0000
  H   H22       1.0  0.19583  0.97750  0.60494  1.0000
  H   H23       1.0  0.30418  0.97750  0.10494  1.0000
  H   H24       1.0  0.80418  0.02250  0.39506  1.0000
  H   H25       1.0  0.42868  0.37872  0.90555  1.0000
  H   H26       1.0  0.92868  0.62128  0.59445  1.0000
  H   H27       1.0  0.57132  0.62128  0.09445  1.0000
  H   H28       1.0  0.07132  0.37872  0.40555  1.0000
  H   H29       1.0  0.24011  0.27374  0.95821  1.0000
  H   H30       1.0  0.74011  0.72626  0.54179  1.0000
  H   H31       1.0  0.75989  0.72626  0.04179  1.0000
  H   H32       1.0  0.25989  0.27374  0.45821  1.0000
  C   C1        1.0  0.95140  0.31159  0.68537  1.0000
  C   C2        1.0  0.45140  0.68841  0.81463  1.0000
  C   C3        1.0  0.04860  0.68841  0.31463  1.0000
  C   C4        1.0  0.54860  0.31158  0.18537  1.0000
  C   C5        1.0  0.10605  0.35325  0.76281  1.0000
  C   C6        1.0  0.60605  0.64675  0.73719  1.0000
  C   C7        1.0  0.89396  0.64675  0.23719  1.0000
  C   C8        1.0  0.39395  0.35325  0.26281  1.0000
  C   C9        1.0  0.06538  0.29067  0.83711  1.0000
  C   C10       1.0  0.56538  0.70933  0.66289  1.0000
  C   C11       1.0  0.93462  0.70933  0.16289  1.0000
  C   C12       1.0  0.43462  0.29067  0.33711  1.0000
  C   C13       1.0  0.87822  0.18036  0.83370  1.0000
  C   C14       1.0  0.37822  0.81964  0.66630  1.0000
  C   C15       1.0  0.12178  0.81964  0.16630  1.0000
  C   C16       1.0  0.62178  0.18036  0.33370  1.0000
  C   C17       1.0  0.72531  0.13989  0.75523  1.0000
  C   C18       1.0  0.22531  0.86011  0.74477  1.0000
  C   C19       1.0  0.27469  0.86011  0.24477  1.0000
  C   C20       1.0  0.77469  0.13989  0.25523  1.0000
  C   C21       1.0  0.75595  0.20478  0.68211  1.0000
  C   C22       1.0  0.25595  0.79522  0.81789  1.0000
  C   C23       1.0  0.24405  0.79522  0.31789  1.0000
  C   C24       1.0  0.74405  0.20478  0.18211  1.0000
  C   C25       1.0  0.98723  0.38303  0.60756  1.0000
  C   C26       1.0  0.48723  0.61697  0.89244  1.0000
  C   C27       1.0  0.01277  0.61698  0.39244  1.0000
  C   C28       1.0  0.51277  0.38302  0.10756  1.0000
  C   C29       1.0  0.84831  0.10545  0.91069  1.0000
  C   C30       1.0  0.34831  0.89455  0.58931  1.0000
  C   C31       1.0  0.15169  0.89455  0.08931  1.0000
  C   C32       1.0  0.65169  0.10545  0.41069  1.0000
  N   N1        1.0  0.21295  0.34074  0.91605  1.0000
  N   N2        1.0  0.71295  0.65926  0.58395  1.0000
  N   N3        1.0  0.78705  0.65926  0.08395  1.0000
  N   N4        1.0  0.28705  0.34074  0.41605  1.0000
  O   O1        1.0  0.79444  0.35804  0.54472  1.0000
  O   O2        1.0  0.29444  0.64196  0.95528  1.0000
  O   O3        1.0  0.20556  0.64196  0.45528  1.0000
  O   O4        1.0  0.70556  0.35804  0.04471  1.0000
  O   O5        1.0  0.20374  0.46623  0.60822  1.0000
  O   O6        1.0  0.70374  0.53377  0.89178  1.0000
  O   O7        1.0  0.79626  0.53377  0.39178  1.0000
  O   O8        1.0  0.29625  0.46623  0.10822  1.0000
