data_image0
_chemical_formula_structural       Zn4H32C40N4O20
_chemical_formula_sum              "Zn4 H32 C40 N4 O20"
_cell_length_a       5.21724
_cell_length_b       10.523
_cell_length_c       18.6507
_cell_angle_alpha    89.9999
_cell_angle_beta     89.9998
_cell_angle_gamma    92.5882

_space_group_name_H-M_alt    "P 1"
_space_group_IT_number       1

loop_
  _space_group_symop_operation_xyz
  'x, y, z'

loop_
  _atom_site_type_symbol
  _atom_site_label
  _atom_site_symmetry_multiplicity
  _atom_site_fract_x
  _atom_site_fract_y
  _atom_site_fract_z
  _atom_site_occupancy
  Zn  Zn1       1.0  0.54544  0.77051  0.55425  1.0000
  Zn  Zn2       1.0  0.54544  0.27051  0.94575  1.0000
  Zn  Zn3       1.0  0.45457  0.22949  0.44576  1.0000
  Zn  Zn4       1.0  0.45456  0.72948  0.05425  1.0000
  H   H1        1.0  0.96721  0.67243  0.59778  1.0000
  H   H2        1.0  0.96722  0.17243  0.90222  1.0000
  H   H3        1.0  0.03279  0.32757  0.40222  1.0000
  H   H4        1.0  0.03278  0.82756  0.09778  1.0000
  H   H5        1.0  0.79178  0.55610  0.55911  1.0000
  H   H6        1.0  0.79179  0.05610  0.94089  1.0000
  H   H7        1.0  0.20821  0.44390  0.44089  1.0000
  H   H8        1.0  0.20821  0.94390  0.05911  1.0000
  H   H9        1.0  0.44392  0.95688  0.79439  1.0000
  H   H10       1.0  0.44392  0.45688  0.70561  1.0000
  H   H11       1.0  0.55608  0.04313  0.20561  1.0000
  H   H12       1.0  0.55608  0.54312  0.29440  1.0000
  H   H13       1.0  0.19687  0.96256  0.90907  1.0000
  H   H14       1.0  0.19687  0.46256  0.59094  1.0000
  H   H15       1.0  0.80313  0.03744  0.09093  1.0000
  H   H16       1.0  0.80313  0.53745  0.40907  1.0000
  H   H17       1.0  0.67352  0.66731  0.82845  1.0000
  H   H18       1.0  0.67353  0.16730  0.67155  1.0000
  H   H19       1.0  0.32648  0.33270  0.17155  1.0000
  H   H20       1.0  0.32647  0.83270  0.32844  1.0000
  H   H21       1.0  0.91611  0.66420  0.71406  1.0000
  H   H22       1.0  0.91612  0.16419  0.78594  1.0000
  H   H23       1.0  0.08388  0.33581  0.28594  1.0000
  H   H24       1.0  0.08387  0.83580  0.21406  1.0000
  H   H25       1.0  0.70506  0.89484  0.41547  1.0000
  H   H26       1.0  0.70507  0.39483  0.08452  1.0000
  H   H27       1.0  0.29494  0.10516  0.58453  1.0000
  H   H28       1.0  0.29494  0.60516  0.91547  1.0000
  H   H29       1.0  0.92801  0.95492  0.62666  1.0000
  H   H30       1.0  0.92802  0.45493  0.87334  1.0000
  H   H31       1.0  0.07198  0.04508  0.37334  1.0000
  H   H32       1.0  0.07200  0.54507  0.12666  1.0000
  C   C1        1.0  0.33824  0.81406  0.67806  1.0000
  C   C2        1.0  0.33825  0.31405  0.82195  1.0000
  C   C3        1.0  0.66175  0.18595  0.32194  1.0000
  C   C4        1.0  0.66175  0.68594  0.17806  1.0000
  C   C5        1.0  0.19316  0.81201  0.74686  1.0000
  C   C6        1.0  0.19316  0.31200  0.75314  1.0000
  C   C7        1.0  0.80684  0.18800  0.25314  1.0000
  C   C8        1.0  0.80683  0.68799  0.24686  1.0000
  C   C9        1.0  0.27303  0.89509  0.80223  1.0000
  C   C10       1.0  0.27303  0.39509  0.69777  1.0000
  C   C11       1.0  0.72697  0.10492  0.19777  1.0000
  C   C12       1.0  0.72697  0.60491  0.30224  1.0000
  C   C13       1.0  0.13478  0.89837  0.86596  1.0000
  C   C14       1.0  0.13477  0.39836  0.63404  1.0000
  C   C15       1.0  0.86523  0.10164  0.13403  1.0000
  C   C16       1.0  0.86523  0.60164  0.36596  1.0000
  C   C17       1.0  0.91625  0.81721  0.87512  1.0000
  C   C18       1.0  0.91625  0.31721  0.62488  1.0000
  C   C19       1.0  0.08375  0.18279  0.12488  1.0000
  C   C20       1.0  0.08375  0.68279  0.37512  1.0000
  C   C21       1.0  0.84127  0.73124  0.82073  1.0000
  C   C22       1.0  0.84127  0.23123  0.67927  1.0000
  C   C23       1.0  0.15872  0.26877  0.17927  1.0000
  C   C24       1.0  0.15872  0.76877  0.32073  1.0000
  C   C25       1.0  0.97763  0.72918  0.75676  1.0000
  C   C26       1.0  0.97764  0.22917  0.74324  1.0000
  C   C27       1.0  0.02237  0.27083  0.24324  1.0000
  C   C28       1.0  0.02236  0.77082  0.25676  1.0000
  C   C29       1.0  0.76201  0.82266  0.94250  1.0000
  C   C30       1.0  0.76200  0.32266  0.55751  1.0000
  C   C31       1.0  0.23800  0.17734  0.05750  1.0000
  C   C32       1.0  0.23800  0.67734  0.44249  1.0000
  C   C33       1.0  0.83825  0.94218  0.45280  1.0000
  C   C34       1.0  0.83826  0.44218  0.04720  1.0000
  C   C35       1.0  0.16174  0.05782  0.54720  1.0000
  C   C36       1.0  0.16175  0.55782  0.95279  1.0000
  C   C37       1.0  0.96381  0.97471  0.57018  1.0000
  C   C38       1.0  0.96381  0.47471  0.92982  1.0000
  C   C39       1.0  0.03619  0.02530  0.42982  1.0000
  C   C40       1.0  0.03620  0.52529  0.07018  1.0000
  N   N1        1.0  0.80392  0.91706  0.52283  1.0000
  N   N2        1.0  0.80393  0.41706  0.97717  1.0000
  N   N3        1.0  0.19608  0.08294  0.47717  1.0000
  N   N4        1.0  0.19609  0.58294  0.02282  1.0000
  O   O1        1.0  0.25627  0.73932  0.62619  1.0000
  O   O2        1.0  0.25627  0.23932  0.87382  1.0000
  O   O3        1.0  0.74373  0.26068  0.37381  1.0000
  O   O4        1.0  0.74373  0.76067  0.12619  1.0000
  O   O5        1.0  0.53469  0.88620  0.66949  1.0000
  O   O6        1.0  0.53470  0.38619  0.83051  1.0000
  O   O7        1.0  0.46530  0.11380  0.33051  1.0000
  O   O8        1.0  0.46529  0.61380  0.16949  1.0000
  O   O9        1.0  0.64408  0.71791  0.96211  1.0000
  O   O10       1.0  0.64408  0.21791  0.53789  1.0000
  O   O11       1.0  0.35593  0.28208  0.03789  1.0000
  O   O12       1.0  0.35593  0.78209  0.46211  1.0000
  O   O13       1.0  0.74944  0.92468  0.97747  1.0000
  O   O14       1.0  0.74945  0.42468  0.52253  1.0000
  O   O15       1.0  0.25055  0.07532  0.02253  1.0000
  O   O16       1.0  0.25055  0.57532  0.47747  1.0000
  O   O17       1.0  0.79016  0.64231  0.58427  1.0000
  O   O18       1.0  0.79017  0.14231  0.91573  1.0000
  O   O19       1.0  0.20983  0.35769  0.41573  1.0000
  O   O20       1.0  0.20982  0.85768  0.08427  1.0000
