data_image0
_chemical_formula_structural       Co2H32C32N4O8
_chemical_formula_sum              "Co2 H32 C32 N4 O8"
_cell_length_a       4.30904
_cell_length_b       10.5155
_cell_length_c       15.3501
_cell_angle_alpha    96.0274
_cell_angle_beta     90.0004
_cell_angle_gamma    89.9996

_space_group_name_H-M_alt    "P 1"
_space_group_IT_number       1

loop_
  _space_group_symop_operation_xyz
  'x, y, z'

loop_
  _atom_site_type_symbol
  _atom_site_label
  _atom_site_symmetry_multiplicity
  _atom_site_fract_x
  _atom_site_fract_y
  _atom_site_fract_z
  _atom_site_occupancy
  Co  Co1       1.0  0.50000  0.50000  0.50000  1.0000
  Co  Co2       1.0  0.00000  0.50000  1.00000  1.0000
  H   H1        1.0  0.25709  0.43756  0.76296  1.0000
  H   H2        1.0  0.75709  0.56244  0.73704  1.0000
  H   H3        1.0  0.74291  0.56244  0.23704  1.0000
  H   H4        1.0  0.24291  0.43756  0.26296  1.0000
  H   H5        1.0  0.56943  0.05872  0.75009  1.0000
  H   H6        1.0  0.06944  0.94129  0.74991  1.0000
  H   H7        1.0  0.43057  0.94128  0.24991  1.0000
  H   H8        1.0  0.93056  0.05871  0.25009  1.0000
  H   H9        1.0  0.62370  0.17947  0.61953  1.0000
  H   H10       1.0  0.12370  0.82054  0.88047  1.0000
  H   H11       1.0  0.37630  0.82053  0.38047  1.0000
  H   H12       1.0  0.87630  0.17946  0.11953  1.0000
  H   H13       1.0  0.74398  0.16431  0.96651  1.0000
  H   H14       1.0  0.24397  0.83569  0.53349  1.0000
  H   H15       1.0  0.25602  0.83569  0.03349  1.0000
  H   H16       1.0  0.75603  0.16431  0.46651  1.0000
  H   H17       1.0  0.06863  0.07110  0.92952  1.0000
  H   H18       1.0  0.56863  0.92890  0.57048  1.0000
  H   H19       1.0  0.93137  0.92890  0.07048  1.0000
  H   H20       1.0  0.43137  0.07110  0.42952  1.0000
  H   H21       1.0  0.69283  0.02198  0.89310  1.0000
  H   H22       1.0  0.19282  0.97802  0.60689  1.0000
  H   H23       1.0  0.30717  0.97802  0.10690  1.0000
  H   H24       1.0  0.80718  0.02198  0.39311  1.0000
  H   H25       1.0  0.42593  0.37606  0.90548  1.0000
  H   H26       1.0  0.92592  0.62394  0.59452  1.0000
  H   H27       1.0  0.57407  0.62394  0.09452  1.0000
  H   H28       1.0  0.07408  0.37606  0.40548  1.0000
  H   H29       1.0  0.22906  0.27174  0.95738  1.0000
  H   H30       1.0  0.72905  0.72826  0.54262  1.0000
  H   H31       1.0  0.77095  0.72826  0.04262  1.0000
  H   H32       1.0  0.27095  0.27174  0.45738  1.0000
  C   C1        1.0  0.94864  0.31485  0.68318  1.0000
  C   C2        1.0  0.44864  0.68515  0.81682  1.0000
  C   C3        1.0  0.05136  0.68515  0.31682  1.0000
  C   C4        1.0  0.55136  0.31485  0.18317  1.0000
  C   C5        1.0  0.10385  0.35507  0.76108  1.0000
  C   C6        1.0  0.60385  0.64494  0.73892  1.0000
  C   C7        1.0  0.89616  0.64493  0.23892  1.0000
  C   C8        1.0  0.39615  0.35506  0.26108  1.0000
  C   C9        1.0  0.06255  0.29140  0.83558  1.0000
  C   C10       1.0  0.56255  0.70860  0.66442  1.0000
  C   C11       1.0  0.93745  0.70860  0.16442  1.0000
  C   C12       1.0  0.43745  0.29140  0.33558  1.0000
  C   C13       1.0  0.87253  0.18159  0.83181  1.0000
  C   C14       1.0  0.37253  0.81841  0.66819  1.0000
  C   C15       1.0  0.12747  0.81841  0.16819  1.0000
  C   C16       1.0  0.62747  0.18159  0.33181  1.0000
  C   C17       1.0  0.71901  0.14267  0.75296  1.0000
  C   C18       1.0  0.21902  0.85734  0.74704  1.0000
  C   C19       1.0  0.28099  0.85733  0.24704  1.0000
  C   C20       1.0  0.78098  0.14266  0.25296  1.0000
  C   C21       1.0  0.75099  0.20860  0.67957  1.0000
  C   C22       1.0  0.25099  0.79140  0.82044  1.0000
  C   C23       1.0  0.24901  0.79140  0.32043  1.0000
  C   C24       1.0  0.74901  0.20860  0.17957  1.0000
  C   C25       1.0  0.99012  0.38664  0.60533  1.0000
  C   C26       1.0  0.49012  0.61336  0.89467  1.0000
  C   C27       1.0  0.00988  0.61336  0.39467  1.0000
  C   C28       1.0  0.50988  0.38664  0.10533  1.0000
  C   C29       1.0  0.84112  0.10600  0.90925  1.0000
  C   C30       1.0  0.34112  0.89400  0.59075  1.0000
  C   C31       1.0  0.15888  0.89400  0.09075  1.0000
  C   C32       1.0  0.65888  0.10600  0.40925  1.0000
  N   N1        1.0  0.20928  0.33933  0.91482  1.0000
  N   N2        1.0  0.70928  0.66067  0.58518  1.0000
  N   N3        1.0  0.79072  0.66067  0.08518  1.0000
  N   N4        1.0  0.29072  0.33933  0.41482  1.0000
  O   O1        1.0  0.79558  0.36647  0.54211  1.0000
  O   O2        1.0  0.29557  0.63353  0.95789  1.0000
  O   O3        1.0  0.20442  0.63353  0.45789  1.0000
  O   O4        1.0  0.70442  0.36647  0.04211  1.0000
  O   O5        1.0  0.21598  0.46535  0.60564  1.0000
  O   O6        1.0  0.71598  0.53465  0.89436  1.0000
  O   O7        1.0  0.78402  0.53465  0.39436  1.0000
  O   O8        1.0  0.28402  0.46535  0.10564  1.0000
