data_image0
_chemical_formula_structural       Zn2H28C16S4N8O8
_chemical_formula_sum              "Zn2 H28 C16 S4 N8 O8"
_cell_length_a       8.58034
_cell_length_b       8.57832
_cell_length_c       12.185
_cell_angle_alpha    91.7327
_cell_angle_beta     110.865
_cell_angle_gamma    116.814

_space_group_name_H-M_alt    "P 1"
_space_group_IT_number       1

loop_
  _space_group_symop_operation_xyz
  'x, y, z'

loop_
  _atom_site_type_symbol
  _atom_site_label
  _atom_site_symmetry_multiplicity
  _atom_site_fract_x
  _atom_site_fract_y
  _atom_site_fract_z
  _atom_site_occupancy
  Zn  Zn1       1.0  0.70994  0.95993  0.75000  1.0000
  Zn  Zn2       1.0  0.29006  0.04007  0.25000  1.0000
  H   H1        1.0  0.45533  0.79222  0.99132  1.0000
  H   H2        1.0  0.30095  0.46392  0.50884  1.0000
  H   H3        1.0  0.54467  0.20778  0.00868  1.0000
  H   H4        1.0  0.69905  0.53607  0.49116  1.0000
  H   H5        1.0  0.44312  0.78897  0.84500  1.0000
  H   H6        1.0  0.44392  0.59807  0.65515  1.0000
  H   H7        1.0  0.55688  0.21103  0.15500  1.0000
  H   H8        1.0  0.55608  0.40193  0.34485  1.0000
  H   H9        1.0  0.87968  0.74795  0.08582  1.0000
  H   H10       1.0  0.16214  0.79381  0.41427  1.0000
  H   H11       1.0  0.12032  0.25205  0.91418  1.0000
  H   H12       1.0  0.83786  0.20619  0.58573  1.0000
  H   H13       1.0  0.69491  0.86122  0.19178  1.0000
  H   H14       1.0  0.16931  0.50295  0.30831  1.0000
  H   H15       1.0  0.30509  0.13879  0.80822  1.0000
  H   H16       1.0  0.83069  0.49705  0.69169  1.0000
  H   H17       1.0  0.77815  0.70785  0.23835  1.0000
  H   H18       1.0  0.96943  0.53965  0.26180  1.0000
  H   H19       1.0  0.22185  0.29215  0.76166  1.0000
  H   H20       1.0  0.03057  0.46035  0.73820  1.0000
  H   H21       1.0  0.53596  0.62552  0.13329  1.0000
  H   H22       1.0  0.99224  0.40252  0.36685  1.0000
  H   H23       1.0  0.46403  0.37448  0.86671  1.0000
  H   H24       1.0  0.00776  0.59748  0.63315  1.0000
  H   H25       1.0  0.92208  0.79934  0.45182  1.0000
  H   H26       1.0  0.84770  0.47045  0.04825  1.0000
  H   H27       1.0  0.07790  0.20066  0.54818  1.0000
  H   H28       1.0  0.15230  0.52955  0.95175  1.0000
  C   C1        1.0  0.65645  0.75209  0.95512  1.0000
  C   C2        1.0  0.29694  0.70123  0.54498  1.0000
  C   C3        1.0  0.34355  0.24790  0.04488  1.0000
  C   C4        1.0  0.70307  0.29877  0.45502  1.0000
  C   C5        1.0  0.68493  0.73347  0.16199  1.0000
  C   C6        1.0  0.07145  0.52281  0.33814  1.0000
  C   C7        1.0  0.31507  0.26654  0.83801  1.0000
  C   C8        1.0  0.92855  0.47719  0.66186  1.0000
  C   C9        1.0  0.83479  0.88186  0.58081  1.0000
  C   C10       1.0  0.80098  0.25407  0.91913  1.0000
  C   C11       1.0  0.16520  0.11815  0.41919  1.0000
  C   C12       1.0  0.19902  0.74593  0.08087  1.0000
  C   C13       1.0  0.94222  0.91780  0.50380  1.0000
  C   C14       1.0  0.91399  0.43848  0.99619  1.0000
  C   C15       1.0  0.05777  0.08220  0.49620  1.0000
  C   C16       1.0  0.08601  0.56152  0.00381  1.0000
  S   S1        1.0  0.74626  0.74383  0.84883  1.0000
  S   S2        1.0  0.39511  0.89748  0.65120  1.0000
  S   S3        1.0  0.25374  0.25617  0.15117  1.0000
  S   S4        1.0  0.60489  0.10252  0.34880  1.0000
  N   N1        1.0  0.49515  0.75983  0.92642  1.0000
  N   N2        1.0  0.33335  0.56860  0.57373  1.0000
  N   N3        1.0  0.50485  0.24017  0.07358  1.0000
  N   N4        1.0  0.66665  0.43140  0.42627  1.0000
  N   N5        1.0  0.74821  0.73920  0.06556  1.0000
  N   N6        1.0  0.17362  0.68255  0.43454  1.0000
  N   N7        1.0  0.25179  0.26080  0.93444  1.0000
  N   N8        1.0  0.82638  0.31745  0.56546  1.0000
  O   O1        1.0  0.73145  0.72217  0.58190  1.0000
  O   O2        1.0  0.64022  0.14961  0.91802  1.0000
  O   O3        1.0  0.26855  0.27783  0.41810  1.0000
  O   O4        1.0  0.35978  0.85039  0.08198  1.0000
  O   O5        1.0  0.85491  0.01920  0.64481  1.0000
  O   O6        1.0  0.87430  0.21016  0.85511  1.0000
  O   O7        1.0  0.14509  0.98080  0.35519  1.0000
  O   O8        1.0  0.12571  0.78984  0.14489  1.0000
