data_image0
_chemical_formula_structural       Zn2H40C28S4N8O8
_chemical_formula_sum              "Zn2 H40 C28 S4 N8 O8"
_cell_length_a       8.53932
_cell_length_b       9.47801
_cell_length_c       12.8831
_cell_angle_alpha    98.2535
_cell_angle_beta     107.068
_cell_angle_gamma    98.9704

_space_group_name_H-M_alt    "P 1"
_space_group_IT_number       1

loop_
  _space_group_symop_operation_xyz
  'x, y, z'

loop_
  _atom_site_type_symbol
  _atom_site_label
  _atom_site_symmetry_multiplicity
  _atom_site_fract_x
  _atom_site_fract_y
  _atom_site_fract_z
  _atom_site_occupancy
  Zn  Zn1       1.0  0.83422  0.75465  0.23779  1.0000
  Zn  Zn2       1.0  0.16578  0.24536  0.76221  1.0000
  H   H1        1.0  0.74039  0.29929  0.27461  1.0000
  H   H2        1.0  0.25961  0.70071  0.72539  1.0000
  H   H3        1.0  0.97303  0.02484  0.33899  1.0000
  H   H4        1.0  0.02696  0.97516  0.66101  1.0000
  H   H5        1.0  0.82539  0.55502  0.83771  1.0000
  H   H6        1.0  0.17461  0.44498  0.16229  1.0000
  H   H7        1.0  0.03370  0.78800  0.09587  1.0000
  H   H8        1.0  0.96630  0.21200  0.90413  1.0000
  H   H9        1.0  0.54795  0.14528  0.05403  1.0000
  H   H10       1.0  0.45205  0.85472  0.94598  1.0000
  H   H11       1.0  0.50295  0.28817  0.13950  1.0000
  H   H12       1.0  0.49705  0.71183  0.86050  1.0000
  H   H13       1.0  0.43617  0.10132  0.14578  1.0000
  H   H14       1.0  0.56383  0.89868  0.85422  1.0000
  H   H15       1.0  0.03394  0.33595  0.36705  1.0000
  H   H16       1.0  0.96606  0.66405  0.63295  1.0000
  H   H17       1.0  0.09712  0.23050  0.47084  1.0000
  H   H18       1.0  0.90288  0.76949  0.52916  1.0000
  H   H19       1.0  0.90210  0.28512  0.44550  1.0000
  H   H20       1.0  0.09790  0.71488  0.55450  1.0000
  H   H21       1.0  0.70607  0.30838  0.90352  1.0000
  H   H22       1.0  0.29393  0.69163  0.09648  1.0000
  H   H23       1.0  0.59874  0.36318  0.78068  1.0000
  H   H24       1.0  0.40126  0.63682  0.21932  1.0000
  H   H25       1.0  0.55048  0.41424  0.90470  1.0000
  H   H26       1.0  0.44952  0.58576  0.09531  1.0000
  H   H27       1.0  0.05523  0.72348  0.87844  1.0000
  H   H28       1.0  0.94478  0.27651  0.12157  1.0000
  H   H29       1.0  0.08950  0.89950  0.96059  1.0000
  H   H30       1.0  0.91050  0.10049  0.03941  1.0000
  H   H31       1.0  0.88494  0.81688  0.86803  1.0000
  H   H32       1.0  0.11506  0.18312  0.13196  1.0000
  H   H33       1.0  0.55913  0.75310  0.47020  1.0000
  H   H34       1.0  0.44087  0.24691  0.52979  1.0000
  H   H35       1.0  0.61191  0.30798  0.40943  1.0000
  H   H36       1.0  0.38809  0.69203  0.59056  1.0000
  H   H37       1.0  0.22997  0.94976  0.53737  1.0000
  H   H38       1.0  0.77003  0.05024  0.46263  1.0000
  H   H39       1.0  0.50226  0.95825  0.30529  1.0000
  H   H40       1.0  0.49774  0.04174  0.69471  1.0000
  C   C1        1.0  0.77472  0.08779  0.24104  1.0000
  C   C2        1.0  0.22528  0.91221  0.75896  1.0000
  C   C3        1.0  0.53654  0.18102  0.13586  1.0000
  C   C4        1.0  0.46345  0.81898  0.86414  1.0000
  C   C5        1.0  0.99077  0.24848  0.40610  1.0000
  C   C6        1.0  0.00923  0.75151  0.59390  1.0000
  C   C7        1.0  0.85438  0.61108  0.00070  1.0000
  C   C8        1.0  0.14562  0.38892  0.99930  1.0000
  C   C9        1.0  0.65144  0.39675  0.87091  1.0000
  C   C10       1.0  0.34856  0.60325  0.12909  1.0000
  C   C11       1.0  0.99903  0.79573  0.92522  1.0000
  C   C12       1.0  0.00097  0.20426  0.07478  1.0000
  C   C13       1.0  0.70179  0.57351  0.36117  1.0000
  C   C14       1.0  0.29821  0.42649  0.63883  1.0000
  C   C15       1.0  0.59643  0.53500  0.43215  1.0000
  C   C16       1.0  0.40357  0.46500  0.56785  1.0000
  C   C17       1.0  0.53255  0.64250  0.48368  1.0000
  C   C18       1.0  0.46745  0.35750  0.51631  1.0000
  C   C19       1.0  0.56295  0.39214  0.44911  1.0000
  C   C20       1.0  0.43705  0.60786  0.55089  1.0000
  C   C21       1.0  0.18908  0.89174  0.31730  1.0000
  C   C22       1.0  0.81092  0.10826  0.68270  1.0000
  C   C23       1.0  0.34960  0.94884  0.41177  1.0000
  C   C24       1.0  0.65039  0.05116  0.58823  1.0000
  C   C25       1.0  0.34893  0.97084  0.52170  1.0000
  C   C26       1.0  0.65107  0.02916  0.47831  1.0000
  C   C27       1.0  0.50204  0.97860  0.39063  1.0000
  C   C28       1.0  0.49796  0.02140  0.60937  1.0000
  S   S1        1.0  0.69617  0.92116  0.15065  1.0000
  S   S2        1.0  0.30383  0.07884  0.84934  1.0000
  S   S3        1.0  0.81278  0.54799  0.11128  1.0000
  S   S4        1.0  0.18722  0.45201  0.88872  1.0000
  N   N1        1.0  0.69351  0.19621  0.22408  1.0000
  N   N2        1.0  0.30649  0.80379  0.77592  1.0000
  N   N3        1.0  0.91666  0.11160  0.32695  1.0000
  N   N4        1.0  0.08334  0.88840  0.67305  1.0000
  N   N5        1.0  0.77627  0.53172  0.89767  1.0000
  N   N6        1.0  0.22373  0.46829  0.10233  1.0000
  N   N7        1.0  0.96392  0.73502  0.01522  1.0000
  N   N8        1.0  0.03608  0.26498  0.98478  1.0000
  O   O1        1.0  0.71257  0.70451  0.34240  1.0000
  O   O2        1.0  0.28743  0.29549  0.65759  1.0000
  O   O3        1.0  0.77473  0.48203  0.32491  1.0000
  O   O4        1.0  0.22528  0.51797  0.67508  1.0000
  O   O5        1.0  0.05685  0.85687  0.34678  1.0000
  O   O6        1.0  0.94315  0.14313  0.65322  1.0000
  O   O7        1.0  0.18877  0.88187  0.21920  1.0000
  O   O8        1.0  0.81123  0.11813  0.78080  1.0000
