data_image0
_chemical_formula_structural       Cd2H26C40N20O2
_chemical_formula_sum              "Cd2 H26 C40 N20 O2"
_cell_length_a       8.04642
_cell_length_b       10.6917
_cell_length_c       12.5804
_cell_angle_alpha    79.3743
_cell_angle_beta     73.6043
_cell_angle_gamma    69.3021

_space_group_name_H-M_alt    "P 1"
_space_group_IT_number       1

loop_
  _space_group_symop_operation_xyz
  'x, y, z'

loop_
  _atom_site_type_symbol
  _atom_site_label
  _atom_site_symmetry_multiplicity
  _atom_site_fract_x
  _atom_site_fract_y
  _atom_site_fract_z
  _atom_site_occupancy
  Cd  Cd1       1.0  0.72785  0.59210  0.96037  1.0000
  Cd  Cd2       1.0  0.27215  0.40790  0.03963  1.0000
  H   H1        1.0  0.46920  0.74628  0.38624  1.0000
  H   H2        1.0  0.53079  0.25372  0.61376  1.0000
  H   H3        1.0  0.35273  0.80635  0.58106  1.0000
  H   H4        1.0  0.64727  0.19365  0.41894  1.0000
  H   H5        1.0  0.05023  0.52669  0.65860  1.0000
  H   H6        1.0  0.94977  0.47331  0.34140  1.0000
  H   H7        1.0  0.16411  0.46983  0.46122  1.0000
  H   H8        1.0  0.83589  0.53017  0.53878  1.0000
  H   H9        1.0  0.94882  0.93626  0.65758  1.0000
  H   H10       1.0  0.05118  0.06374  0.34242  1.0000
  H   H11       1.0  0.28508  0.72396  0.88743  1.0000
  H   H12       1.0  0.71493  0.27604  0.11257  1.0000
  H   H13       1.0  0.24510  0.94133  0.95317  1.0000
  H   H14       1.0  0.75490  0.05867  0.04683  1.0000
  H   H15       1.0  0.90601  0.15360  0.72425  1.0000
  H   H16       1.0  0.09399  0.84640  0.27575  1.0000
  H   H17       1.0  0.67631  0.70944  0.70342  1.0000
  H   H18       1.0  0.32369  0.29056  0.29658  1.0000
  H   H19       1.0  0.63477  0.93514  0.95580  1.0000
  H   H20       1.0  0.36523  0.06486  0.04420  1.0000
  H   H21       1.0  0.52214  0.11413  0.77933  1.0000
  H   H22       1.0  0.47785  0.88587  0.22067  1.0000
  H   H23       1.0  0.78278  0.81128  0.51963  1.0000
  H   H24       1.0  0.21722  0.18871  0.48037  1.0000
  H   H25       1.0  0.30452  0.12758  0.66194  1.0000
  H   H26       1.0  0.69548  0.87242  0.33806  1.0000
  C   C1        1.0  0.38815  0.57423  0.29405  1.0000
  C   C2        1.0  0.61184  0.42577  0.70595  1.0000
  C   C3        1.0  0.32165  0.60641  0.40951  1.0000
  C   C4        1.0  0.67834  0.39359  0.59049  1.0000
  C   C5        1.0  0.37410  0.70058  0.44509  1.0000
  C   C6        1.0  0.62590  0.29942  0.55491  1.0000
  C   C7        1.0  0.31021  0.73364  0.55432  1.0000
  C   C8        1.0  0.68979  0.26636  0.44568  1.0000
  C   C9        1.0  0.19302  0.67100  0.63061  1.0000
  C   C10       1.0  0.80698  0.32900  0.36939  1.0000
  C   C11       1.0  0.14023  0.57544  0.59757  1.0000
  C   C12       1.0  0.85978  0.42456  0.40243  1.0000
  C   C13       1.0  0.20465  0.54398  0.48761  1.0000
  C   C14       1.0  0.79535  0.45602  0.51239  1.0000
  C   C15       1.0  0.01375  0.93839  0.72211  1.0000
  C   C16       1.0  0.98625  0.06161  0.27789  1.0000
  C   C17       1.0  0.11906  0.81837  0.76940  1.0000
  C   C18       1.0  0.88094  0.18163  0.23060  1.0000
  C   C19       1.0  0.20359  0.81867  0.85193  1.0000
  C   C20       1.0  0.79641  0.18133  0.14807  1.0000
  C   C21       1.0  0.18133  0.94035  0.88789  1.0000
  C   C22       1.0  0.81867  0.05965  0.11212  1.0000
  C   C23       1.0  0.07523  0.06208  0.84205  1.0000
  C   C24       1.0  0.92477  0.93792  0.15795  1.0000
  C   C25       1.0  0.99048  0.05960  0.75925  1.0000
  C   C26       1.0  0.00952  0.94040  0.24075  1.0000
  C   C27       1.0  0.05456  0.18903  0.88013  1.0000
  C   C28       1.0  0.94544  0.81096  0.11987  1.0000
  C   C29       1.0  0.65626  0.79485  0.74652  1.0000
  C   C30       1.0  0.34374  0.20515  0.25348  1.0000
  C   C31       1.0  0.62266  0.91698  0.87689  1.0000
  C   C32       1.0  0.37734  0.08302  0.12311  1.0000
  C   C33       1.0  0.56960  0.00517  0.78940  1.0000
  C   C34       1.0  0.43040  0.99483  0.21060  1.0000
  C   C35       1.0  0.65782  0.89292  0.51120  1.0000
  C   C36       1.0  0.34217  0.10708  0.48880  1.0000
  C   C37       1.0  0.54855  0.96636  0.60166  1.0000
  C   C38       1.0  0.45145  0.03364  0.39834  1.0000
  C   C39       1.0  0.39137  0.07367  0.59035  1.0000
  C   C40       1.0  0.60862  0.92633  0.40965  1.0000
  N   N1        1.0  0.49530  0.63273  0.21278  1.0000
  N   N2        1.0  0.50470  0.36727  0.78722  1.0000
  N   N3        1.0  0.51956  0.57397  0.12238  1.0000
  N   N4        1.0  0.48044  0.42603  0.87762  1.0000
  N   N5        1.0  0.43265  0.48297  0.14692  1.0000
  N   N6        1.0  0.56735  0.51703  0.85308  1.0000
  N   N7        1.0  0.34875  0.48172  0.25445  1.0000
  N   N8        1.0  0.65124  0.51828  0.74555  1.0000
  N   N9        1.0  0.17216  0.20684  0.93004  1.0000
  N   N10       1.0  0.82784  0.79316  0.06996  1.0000
  N   N11       1.0  0.10083  0.33379  0.95381  1.0000
  N   N12       1.0  0.89917  0.66621  0.04619  1.0000
  N   N13       1.0  0.94632  0.39133  0.91893  1.0000
  N   N14       1.0  0.05369  0.60867  0.08107  1.0000
  N   N15       1.0  0.91393  0.30283  0.87226  1.0000
  N   N16       1.0  0.08607  0.69717  0.12774  1.0000
  N   N17       1.0  0.67414  0.78682  0.84948  1.0000
  N   N18       1.0  0.32586  0.21318  0.15052  1.0000
  N   N19       1.0  0.59345  0.92612  0.70665  1.0000
  N   N20       1.0  0.40655  0.07388  0.29335  1.0000
  O   O1        1.0  0.13273  0.69459  0.74139  1.0000
  O   O2        1.0  0.86727  0.30541  0.25861  1.0000
