data_image0
_chemical_formula_structural       Co2H24C32N8O12
_chemical_formula_sum              "Co2 H24 C32 N8 O12"
_cell_length_a       9.25398
_cell_length_b       10.2104
_cell_length_c       10.7157
_cell_angle_alpha    97.1523
_cell_angle_beta     106.447
_cell_angle_gamma    93.0676

_space_group_name_H-M_alt    "P 1"
_space_group_IT_number       1

loop_
  _space_group_symop_operation_xyz
  'x, y, z'

loop_
  _atom_site_type_symbol
  _atom_site_label
  _atom_site_symmetry_multiplicity
  _atom_site_fract_x
  _atom_site_fract_y
  _atom_site_fract_z
  _atom_site_occupancy
  Co  Co1       1.0  0.41120  0.51565  0.78302  1.0000
  Co  Co2       1.0  0.58880  0.48436  0.21698  1.0000
  H   H1        1.0  0.29691  0.37705  0.98707  1.0000
  H   H2        1.0  0.70308  0.62296  0.01293  1.0000
  H   H3        1.0  0.02313  0.31583  0.97257  1.0000
  H   H4        1.0  0.97687  0.68417  0.02742  1.0000
  H   H5        1.0  0.75051  0.26718  0.99091  1.0000
  H   H6        1.0  0.24950  0.73283  0.00910  1.0000
  H   H7        1.0  0.06622  0.56243  0.68045  1.0000
  H   H8        1.0  0.93378  0.43756  0.31954  1.0000
  H   H9        1.0  0.75384  0.32847  0.73909  1.0000
  H   H10       1.0  0.24616  0.67152  0.26091  1.0000
  H   H11       1.0  0.76070  0.48439  0.82931  1.0000
  H   H12       1.0  0.23929  0.51560  0.17069  1.0000
  H   H13       1.0  0.77284  0.85064  0.01836  1.0000
  H   H14       1.0  0.22717  0.14936  0.98165  1.0000
  H   H15       1.0  0.39044  0.98328  0.74557  1.0000
  H   H16       1.0  0.60956  0.01672  0.25443  1.0000
  H   H17       1.0  0.66991  0.31331  0.46603  1.0000
  H   H18       1.0  0.33007  0.68669  0.53396  1.0000
  H   H19       1.0  0.78420  0.71014  0.68474  1.0000
  H   H20       1.0  0.21580  0.28986  0.31526  1.0000
  H   H21       1.0  0.67365  0.70638  0.42697  1.0000
  H   H22       1.0  0.32635  0.29362  0.57303  1.0000
  H   H23       1.0  0.07725  0.01812  0.23600  1.0000
  H   H24       1.0  0.92276  0.98188  0.76399  1.0000
  C   C1        1.0  0.47616  0.24192  0.79399  1.0000
  C   C2        1.0  0.52384  0.75808  0.20601  1.0000
  C   C3        1.0  0.05714  0.37527  0.90643  1.0000
  C   C4        1.0  0.94286  0.62473  0.09357  1.0000
  C   C5        1.0  0.97276  0.43567  0.80282  1.0000
  C   C6        1.0  0.02724  0.56432  0.19717  1.0000
  C   C7        1.0  0.56272  0.13638  0.85989  1.0000
  C   C8        1.0  0.43729  0.86362  0.14012  1.0000
  C   C9        1.0  0.70210  0.16489  0.95679  1.0000
  C   C10       1.0  0.29791  0.83511  0.04321  1.0000
  C   C11       1.0  0.08136  0.50189  0.75864  1.0000
  C   C12       1.0  0.91863  0.49810  0.24135  1.0000
  C   C13       1.0  0.80339  0.43146  0.75330  1.0000
  C   C14       1.0  0.19660  0.56853  0.24670  1.0000
  C   C15       1.0  0.77817  0.06122  0.01260  1.0000
  C   C16       1.0  0.22183  0.93878  0.98740  1.0000
  C   C17       1.0  0.92806  0.09312  0.11224  1.0000
  C   C18       1.0  0.07194  0.90688  0.88775  1.0000
  C   C19       1.0  0.71366  0.92985  0.97343  1.0000
  C   C20       1.0  0.28634  0.07015  0.02658  1.0000
  C   C21       1.0  0.57329  0.90135  0.87742  1.0000
  C   C22       1.0  0.42672  0.09866  0.12258  1.0000
  C   C23       1.0  0.49947  0.00475  0.82063  1.0000
  C   C24       1.0  0.50053  0.99526  0.17937  1.0000
  C   C25       1.0  0.49694  0.76408  0.83553  1.0000
  C   C26       1.0  0.50306  0.23592  0.16447  1.0000
  C   C27       1.0  0.74686  0.48813  0.62808  1.0000
  C   C28       1.0  0.25314  0.51187  0.37192  1.0000
  C   C29       1.0  0.68788  0.41905  0.50008  1.0000
  C   C30       1.0  0.31212  0.58095  0.49992  1.0000
  C   C31       1.0  0.74589  0.62194  0.61222  1.0000
  C   C32       1.0  0.25411  0.37806  0.38778  1.0000
  N   N1        1.0  0.22233  0.48268  0.82941  1.0000
  N   N2        1.0  0.77766  0.51732  0.17059  1.0000
  N   N3        1.0  0.20473  0.40502  0.91856  1.0000
  N   N4        1.0  0.79527  0.59499  0.08144  1.0000
  N   N5        1.0  0.65305  0.50480  0.41238  1.0000
  N   N6        1.0  0.34695  0.49520  0.58762  1.0000
  N   N7        1.0  0.68940  0.62760  0.48282  1.0000
  N   N8        1.0  0.31060  0.37240  0.51718  1.0000
  O   O1        1.0  0.37015  0.20446  0.68988  1.0000
  O   O2        1.0  0.62986  0.79554  0.31013  1.0000
  O   O3        1.0  0.51795  0.36306  0.84906  1.0000
  O   O4        1.0  0.48206  0.63694  0.15095  1.0000
  O   O5        1.0  0.00517  0.19981  0.13520  1.0000
  O   O6        1.0  0.99484  0.80020  0.86480  1.0000
  O   O7        1.0  0.97604  0.98915  0.17621  1.0000
  O   O8        1.0  0.02397  0.01085  0.82379  1.0000
  O   O9        1.0  0.57196  0.66426  0.87348  1.0000
  O   O10       1.0  0.42804  0.33574  0.12652  1.0000
  O   O11       1.0  0.36232  0.74352  0.76404  1.0000
  O   O12       1.0  0.63769  0.25649  0.23596  1.0000
