data_image0
_chemical_formula_structural       Co2H24C30N8O10
_chemical_formula_sum              "Co2 H24 C30 N8 O10"
_cell_length_a       9.27666
_cell_length_b       10.1864
_cell_length_c       10.9915
_cell_angle_alpha    97.6849
_cell_angle_beta     110.273
_cell_angle_gamma    98.7002

_space_group_name_H-M_alt    "P 1"
_space_group_IT_number       1

loop_
  _space_group_symop_operation_xyz
  'x, y, z'

loop_
  _atom_site_type_symbol
  _atom_site_label
  _atom_site_symmetry_multiplicity
  _atom_site_fract_x
  _atom_site_fract_y
  _atom_site_fract_z
  _atom_site_occupancy
  Co  Co1       1.0  0.41383  0.50774  0.78624  1.0000
  Co  Co2       1.0  0.58617  0.49226  0.21376  1.0000
  H   H1        1.0  0.00070  0.07538  0.13909  1.0000
  H   H2        1.0  0.99930  0.92461  0.86091  1.0000
  H   H3        1.0  0.27362  0.35741  0.96457  1.0000
  H   H4        1.0  0.72638  0.64259  0.03544  1.0000
  H   H5        1.0  0.68187  0.73254  0.42325  1.0000
  H   H6        1.0  0.31813  0.26746  0.57674  1.0000
  H   H7        1.0  0.75913  0.29746  0.99869  1.0000
  H   H8        1.0  0.24088  0.70254  0.00131  1.0000
  H   H9        1.0  0.08126  0.58496  0.69308  1.0000
  H   H10       1.0  0.91874  0.41504  0.30693  1.0000
  H   H11       1.0  0.80862  0.88594  0.02253  1.0000
  H   H12       1.0  0.19138  0.11405  0.97747  1.0000
  H   H13       1.0  0.38109  0.96358  0.75227  1.0000
  H   H14       1.0  0.61891  0.03642  0.24772  1.0000
  H   H15       1.0  0.98848  0.31727  0.94537  1.0000
  H   H16       1.0  0.01152  0.68273  0.05463  1.0000
  H   H17       1.0  0.66985  0.33970  0.46792  1.0000
  H   H18       1.0  0.33015  0.66031  0.53208  1.0000
  H   H19       1.0  0.71776  0.38565  0.75219  1.0000
  H   H20       1.0  0.28224  0.61435  0.24781  1.0000
  H   H21       1.0  0.78842  0.55453  0.83491  1.0000
  H   H22       1.0  0.21158  0.44547  0.16509  1.0000
  H   H23       1.0  0.77562  0.75379  0.68231  1.0000
  H   H24       1.0  0.22438  0.24621  0.31768  1.0000
  C   C1        1.0  0.51133  0.76285  0.84212  1.0000
  C   C2        1.0  0.48867  0.23715  0.15788  1.0000
  C   C3        1.0  0.46583  0.23534  0.80151  1.0000
  C   C4        1.0  0.53418  0.76466  0.19849  1.0000
  C   C5        1.0  0.58645  0.90959  0.88417  1.0000
  C   C6        1.0  0.41355  0.09041  0.11582  1.0000
  C   C7        1.0  0.56168  0.14021  0.86727  1.0000
  C   C8        1.0  0.43833  0.85979  0.13273  1.0000
  C   C9        1.0  0.71257  0.18881  0.96420  1.0000
  C   C10       1.0  0.28743  0.81118  0.03580  1.0000
  C   C11       1.0  0.08348  0.51613  0.76061  1.0000
  C   C12       1.0  0.91653  0.48388  0.23940  1.0000
  C   C13       1.0  0.73977  0.95735  0.97861  1.0000
  C   C14       1.0  0.26023  0.04264  0.02138  1.0000
  C   C15       1.0  0.49882  0.00092  0.82723  1.0000
  C   C16       1.0  0.50118  0.99908  0.17277  1.0000
  C   C17       1.0  0.03416  0.37940  0.88859  1.0000
  C   C18       1.0  0.96584  0.62060  0.11141  1.0000
  C   C19       1.0  0.80211  0.09683  0.01761  1.0000
  C   C20       1.0  0.19789  0.90316  0.98238  1.0000
  C   C21       1.0  0.68754  0.44817  0.50065  1.0000
  C   C22       1.0  0.31246  0.55183  0.49935  1.0000
  C   C23       1.0  0.96330  0.45779  0.79932  1.0000
  C   C24       1.0  0.03670  0.54221  0.20069  1.0000
  C   C25       1.0  0.74330  0.52667  0.62942  1.0000
  C   C26       1.0  0.25670  0.47333  0.37058  1.0000
  C   C27       1.0  0.79781  0.47942  0.75781  1.0000
  C   C28       1.0  0.20219  0.52058  0.24219  1.0000
  C   C29       1.0  0.74271  0.65954  0.61098  1.0000
  C   C30       1.0  0.25729  0.34047  0.38902  1.0000
  N   N1        1.0  0.21786  0.47642  0.82193  1.0000
  N   N2        1.0  0.78214  0.52358  0.17807  1.0000
  N   N3        1.0  0.65514  0.52788  0.41049  1.0000
  N   N4        1.0  0.34485  0.47212  0.58951  1.0000
  N   N5        1.0  0.18526  0.39270  0.89880  1.0000
  N   N6        1.0  0.81473  0.60731  0.10120  1.0000
  N   N7        1.0  0.68930  0.65625  0.47963  1.0000
  N   N8        1.0  0.31070  0.34375  0.52037  1.0000
  O   O1        1.0  0.59032  0.67272  0.88796  1.0000
  O   O2        1.0  0.40968  0.32728  0.11204  1.0000
  O   O3        1.0  0.37149  0.72350  0.76124  1.0000
  O   O4        1.0  0.62851  0.27649  0.23876  1.0000
  O   O5        1.0  0.51704  0.36273  0.85531  1.0000
  O   O6        1.0  0.48296  0.63727  0.14469  1.0000
  O   O7        1.0  0.95284  0.14964  0.10819  1.0000
  O   O8        1.0  0.04716  0.85035  0.89181  1.0000
  O   O9        1.0  0.34552  0.18636  0.69804  1.0000
  O   O10       1.0  0.65449  0.81364  0.30196  1.0000
