data_image0
_chemical_formula_structural       CoH28C30N10O8
_chemical_formula_sum              "Co1 H28 C30 N10 O8"
_cell_length_a       8.37655
_cell_length_b       8.70713
_cell_length_c       10.9686
_cell_angle_alpha    78.0421
_cell_angle_beta     75.0606
_cell_angle_gamma    68.1374

_space_group_name_H-M_alt    "P 1"
_space_group_IT_number       1

loop_
  _space_group_symop_operation_xyz
  'x, y, z'

loop_
  _atom_site_type_symbol
  _atom_site_label
  _atom_site_symmetry_multiplicity
  _atom_site_fract_x
  _atom_site_fract_y
  _atom_site_fract_z
  _atom_site_occupancy
  Co  Co1       1.0  0.50000  0.00000  0.00000  1.0000
  H   H1        1.0  0.91519  0.85311  0.95116  1.0000
  H   H2        1.0  0.08481  0.14690  0.04884  1.0000
  H   H3        1.0  0.25489  0.80815  0.17977  1.0000
  H   H4        1.0  0.74511  0.19185  0.82023  1.0000
  H   H5        1.0  0.56262  0.22977  0.51478  1.0000
  H   H6        1.0  0.43738  0.77022  0.48522  1.0000
  H   H7        1.0  0.16781  0.44565  0.06293  1.0000
  H   H8        1.0  0.83219  0.55435  0.93707  1.0000
  H   H9        1.0  0.51738  0.78640  0.80736  1.0000
  H   H10       1.0  0.48261  0.21360  0.19264  1.0000
  H   H11       1.0  0.03165  0.35101  0.45738  1.0000
  H   H12       1.0  0.96835  0.64899  0.54263  1.0000
  H   H13       1.0  0.03177  0.97033  0.26165  1.0000
  H   H14       1.0  0.96823  0.02967  0.73835  1.0000
  H   H15       1.0  0.56927  0.04021  0.37109  1.0000
  H   H16       1.0  0.43073  0.95979  0.62891  1.0000
  H   H17       1.0  0.16446  0.50884  0.20552  1.0000
  H   H18       1.0  0.83554  0.49116  0.79448  1.0000
  H   H19       1.0  0.35347  0.58356  0.83751  1.0000
  H   H20       1.0  0.64653  0.41644  0.16249  1.0000
  H   H21       1.0  0.76257  0.92116  0.28914  1.0000
  H   H22       1.0  0.23743  0.07884  0.71086  1.0000
  H   H23       1.0  0.53095  0.73484  0.23082  1.0000
  H   H24       1.0  0.46905  0.26515  0.76918  1.0000
  H   H25       1.0  0.80706  0.53096  0.29790  1.0000
  H   H26       1.0  0.19294  0.46904  0.70210  1.0000
  H   H27       1.0  0.71130  0.65311  0.60173  1.0000
  H   H28       1.0  0.28870  0.34689  0.39827  1.0000
  C   C1        1.0  0.78871  0.30328  0.49191  1.0000
  C   C2        1.0  0.21129  0.69671  0.50809  1.0000
  C   C3        1.0  0.85928  0.78875  0.03731  1.0000
  C   C4        1.0  0.14072  0.21126  0.96269  1.0000
  C   C5        1.0  0.25217  0.65431  0.03817  1.0000
  C   C6        1.0  0.74783  0.34569  0.96183  1.0000
  C   C7        1.0  0.05428  0.15442  0.35385  1.0000
  C   C8        1.0  0.94573  0.84557  0.64616  1.0000
  C   C9        1.0  0.13591  0.55658  0.10976  1.0000
  C   C10       1.0  0.86409  0.44342  0.89024  1.0000
  C   C11       1.0  0.94321  0.65371  0.12108  1.0000
  C   C12       1.0  0.05678  0.34629  0.87892  1.0000
  C   C13       1.0  0.69254  0.43886  0.57424  1.0000
  C   C14       1.0  0.30746  0.56114  0.42576  1.0000
  C   C15       1.0  0.29431  0.76919  0.08593  1.0000
  C   C16       1.0  0.70569  0.23081  0.91407  1.0000
  C   C17       1.0  0.24315  0.12541  0.28898  1.0000
  C   C18       1.0  0.75685  0.87459  0.71102  1.0000
  C   C19       1.0  0.70014  0.20725  0.46955  1.0000
  C   C20       1.0  0.29986  0.79275  0.53045  1.0000
  C   C21       1.0  0.78676  0.08526  0.38593  1.0000
  C   C22       1.0  0.21325  0.91474  0.61407  1.0000
  C   C23       1.0  0.96379  0.06220  0.32823  1.0000
  C   C24       1.0  0.03621  0.93779  0.67177  1.0000
  C   C25       1.0  0.34173  0.65384  0.91212  1.0000
  C   C26       1.0  0.65827  0.34616  0.08788  1.0000
  C   C27       1.0  0.80665  0.62170  0.21375  1.0000
  C   C28       1.0  0.19335  0.37830  0.78625  1.0000
  C   C29       1.0  0.96581  0.27645  0.43614  1.0000
  C   C30       1.0  0.03419  0.72355  0.56386  1.0000
  N   N1        1.0  0.68352  0.83406  0.07617  1.0000
  N   N2        1.0  0.31648  0.16594  0.92383  1.0000
  N   N3        1.0  0.42951  0.76245  0.89016  1.0000
  N   N4        1.0  0.57049  0.23756  0.10984  1.0000
  N   N5        1.0  0.40254  0.83366  0.99526  1.0000
  N   N6        1.0  0.59746  0.16635  0.00474  1.0000
  N   N7        1.0  0.65453  0.73159  0.18361  1.0000
  N   N8        1.0  0.34547  0.26841  0.81639  1.0000
  N   N9        1.0  0.70193  0.98811  0.36370  1.0000
  N   N10       1.0  0.29808  0.01189  0.63630  1.0000
  O   O1        1.0  0.32944  0.20265  0.32018  1.0000
  O   O2        1.0  0.67056  0.79736  0.67981  1.0000
  O   O3        1.0  0.31069  0.02812  0.20442  1.0000
  O   O4        1.0  0.68931  0.97188  0.79558  1.0000
  O   O5        1.0  0.75856  0.56247  0.54182  1.0000
  O   O6        1.0  0.24144  0.43753  0.45817  1.0000
  O   O7        1.0  0.56522  0.43749  0.66155  1.0000
  O   O8        1.0  0.43477  0.56250  0.33844  1.0000
