data_image0
_chemical_formula_structural       Co2H40C38N8O8
_chemical_formula_sum              "Co2 H40 C38 N8 O8"
_cell_length_a       9.76447
_cell_length_b       9.9488
_cell_length_c       12.155
_cell_angle_alpha    82.7527
_cell_angle_beta     76.5103
_cell_angle_gamma    61.8575

_space_group_name_H-M_alt    "P 1"
_space_group_IT_number       1

loop_
  _space_group_symop_operation_xyz
  'x, y, z'

loop_
  _atom_site_type_symbol
  _atom_site_label
  _atom_site_symmetry_multiplicity
  _atom_site_fract_x
  _atom_site_fract_y
  _atom_site_fract_z
  _atom_site_occupancy
  Co  Co1       1.0  0.40715  0.97395  0.19000  1.0000
  Co  Co2       1.0  0.59285  0.02605  0.81000  1.0000
  H   H1        1.0  0.08502  0.17528  0.95547  1.0000
  H   H2        1.0  0.91498  0.82472  0.04453  1.0000
  H   H3        1.0  0.86226  0.50320  0.21930  1.0000
  H   H4        1.0  0.13774  0.49680  0.78070  1.0000
  H   H5        1.0  0.13693  0.15401  0.36017  1.0000
  H   H6        1.0  0.86307  0.84599  0.63983  1.0000
  H   H7        1.0  0.64649  0.57979  0.93253  1.0000
  H   H8        1.0  0.35351  0.42021  0.06747  1.0000
  H   H9        1.0  0.47794  0.71805  0.39970  1.0000
  H   H10       1.0  0.52206  0.28195  0.60030  1.0000
  H   H11       1.0  0.02107  0.07045  0.84742  1.0000
  H   H12       1.0  0.97893  0.92955  0.15258  1.0000
  H   H13       1.0  0.89486  0.10566  0.75204  1.0000
  H   H14       1.0  0.10514  0.89434  0.24796  1.0000
  H   H15       1.0  0.81639  0.12550  0.89884  1.0000
  H   H16       1.0  0.18361  0.87450  0.10116  1.0000
  H   H17       1.0  0.36117  0.64912  0.62020  1.0000
  H   H18       1.0  0.63883  0.35088  0.37980  1.0000
  H   H19       1.0  0.16767  0.77679  0.68254  1.0000
  H   H20       1.0  0.83233  0.22321  0.31746  1.0000
  H   H21       1.0  0.67804  0.52459  0.76079  1.0000
  H   H22       1.0  0.32197  0.47541  0.23921  1.0000
  H   H23       1.0  0.60583  0.40388  0.84754  1.0000
  H   H24       1.0  0.39417  0.59612  0.15246  1.0000
  H   H25       1.0  0.70544  0.35506  0.70561  1.0000
  H   H26       1.0  0.29456  0.64494  0.29439  1.0000
  H   H27       1.0  0.05357  0.08986  0.57554  1.0000
  H   H28       1.0  0.94643  0.91014  0.42446  1.0000
  H   H29       1.0  0.96693  0.45390  0.71798  1.0000
  H   H30       1.0  0.03307  0.54610  0.28202  1.0000
  H   H31       1.0  0.99175  0.29905  0.64385  1.0000
  H   H32       1.0  0.00826  0.70095  0.35615  1.0000
  H   H33       1.0  0.11101  0.26537  0.74515  1.0000
  H   H34       1.0  0.88899  0.73463  0.25485  1.0000
  H   H35       1.0  0.45235  0.82190  0.95486  1.0000
  H   H36       1.0  0.54765  0.17810  0.04514  1.0000
  H   H37       1.0  0.30251  0.70240  0.88995  1.0000
  H   H38       1.0  0.69749  0.29760  0.11005  1.0000
  H   H39       1.0  0.44859  0.96915  0.62342  1.0000
  H   H40       1.0  0.55141  0.03085  0.37658  1.0000
  C   C1        1.0  0.98646  0.28226  0.98932  1.0000
  C   C2        1.0  0.01354  0.71774  0.01068  1.0000
  C   C3        1.0  0.74278  0.55816  0.07970  1.0000
  C   C4        1.0  0.25722  0.44184  0.92030  1.0000
  C   C5        1.0  0.86323  0.46642  0.13864  1.0000
  C   C6        1.0  0.13678  0.53358  0.86136  1.0000
  C   C7        1.0  0.62222  0.70752  0.12976  1.0000
  C   C8        1.0  0.37778  0.29248  0.87024  1.0000
  C   C9        1.0  0.98598  0.32891  0.09340  1.0000
  C   C10       1.0  0.01402  0.67109  0.90660  1.0000
  C   C11       1.0  0.74226  0.50837  0.97687  1.0000
  C   C12       1.0  0.25775  0.49163  0.02313  1.0000
  C   C13       1.0  0.86293  0.36942  0.93051  1.0000
  C   C14       1.0  0.13707  0.63058  0.06949  1.0000
  C   C15       1.0  0.86407  0.31363  0.81828  1.0000
  C   C16       1.0  0.13593  0.68637  0.18172  1.0000
  C   C17       1.0  0.26943  0.86296  0.53294  1.0000
  C   C18       1.0  0.73057  0.13704  0.46706  1.0000
  C   C19       1.0  0.37101  0.82235  0.42635  1.0000
  C   C20       1.0  0.62899  0.17765  0.57365  1.0000
  C   C21       1.0  0.90173  0.14429  0.83050  1.0000
  C   C22       1.0  0.09827  0.85571  0.16950  1.0000
  C   C23       1.0  0.28347  0.77018  0.64074  1.0000
  C   C24       1.0  0.71653  0.22982  0.35926  1.0000
  C   C25       1.0  0.70357  0.40543  0.78169  1.0000
  C   C26       1.0  0.29643  0.59457  0.21831  1.0000
  C   C27       1.0  0.15503  0.01213  0.51705  1.0000
  C   C28       1.0  0.84497  0.98787  0.48295  1.0000
  C   C29       1.0  0.99189  0.33366  0.72623  1.0000
  C   C30       1.0  0.00811  0.66634  0.27377  1.0000
  C   C31       1.0  0.11182  0.23460  0.16083  1.0000
  C   C32       1.0  0.88819  0.76540  0.83917  1.0000
  C   C33       1.0  0.34894  0.77290  0.83571  1.0000
  C   C34       1.0  0.65105  0.22710  0.16429  1.0000
  C   C35       1.0  0.34790  0.81678  0.72201  1.0000
  C   C36       1.0  0.65210  0.18322  0.27799  1.0000
  C   C37       1.0  0.42518  0.90885  0.70043  1.0000
  C   C38       1.0  0.57482  0.09115  0.29957  1.0000
  N   N1        1.0  0.32067  0.93838  0.35107  1.0000
  N   N2        1.0  0.67933  0.06162  0.64893  1.0000
  N   N3        1.0  0.18933  0.05269  0.40819  1.0000
  N   N4        1.0  0.81067  0.94731  0.59181  1.0000
  N   N5        1.0  0.42362  0.83565  0.87530  1.0000
  N   N6        1.0  0.57638  0.16435  0.12470  1.0000
  N   N7        1.0  0.47140  0.91889  0.79400  1.0000
  N   N8        1.0  0.52860  0.08111  0.20600  1.0000
  O   O1        1.0  0.63207  0.74832  0.22027  1.0000
  O   O2        1.0  0.36793  0.25168  0.77973  1.0000
  O   O3        1.0  0.50387  0.79994  0.08105  1.0000
  O   O4        1.0  0.49613  0.20006  0.91895  1.0000
  O   O5        1.0  0.23404  0.11687  0.11299  1.0000
  O   O6        1.0  0.76596  0.88313  0.88701  1.0000
  O   O7        1.0  0.08920  0.27517  0.26077  1.0000
  O   O8        1.0  0.91080  0.72483  0.73923  1.0000
