data_image0
_chemical_formula_structural       Zr2H28C24Cl2O2
_chemical_formula_sum              "Zr2 H28 C24 Cl2 O2"
_cell_length_a       8.33594
_cell_length_b       8.38135
_cell_length_c       11.1412
_cell_angle_alpha    68.5714
_cell_angle_beta     64.4203
_cell_angle_gamma    57.9656

_space_group_name_H-M_alt    "P 1"
_space_group_IT_number       1

loop_
  _space_group_symop_operation_xyz
  'x, y, z'

loop_
  _atom_site_type_symbol
  _atom_site_label
  _atom_site_symmetry_multiplicity
  _atom_site_fract_x
  _atom_site_fract_y
  _atom_site_fract_z
  _atom_site_occupancy
  Zr  Zr1       1.0  0.22794  0.54998  0.34222  1.0000
  Zr  Zr2       1.0  0.77207  0.45002  0.65778  1.0000
  H   H1        1.0  0.29251  0.84416  0.40141  1.0000
  H   H2        1.0  0.70750  0.15584  0.59859  1.0000
  H   H3        1.0  0.48774  0.76460  0.14824  1.0000
  H   H4        1.0  0.51227  0.23540  0.85176  1.0000
  H   H5        1.0  0.22617  0.80153  0.04684  1.0000
  H   H6        1.0  0.77383  0.19846  0.95316  1.0000
  H   H7        1.0  0.86565  0.91292  0.23601  1.0000
  H   H8        1.0  0.13435  0.08708  0.76399  1.0000
  H   H9        1.0  0.90705  0.93619  0.45341  1.0000
  H   H10       1.0  0.09296  0.06381  0.54659  1.0000
  H   H11       1.0  0.43634  0.31328  0.11133  1.0000
  H   H12       1.0  0.56367  0.68675  0.88866  1.0000
  H   H13       1.0  0.64602  0.45976  0.12577  1.0000
  H   H14       1.0  0.35399  0.54024  0.87424  1.0000
  H   H15       1.0  0.64302  0.37307  0.38653  1.0000
  H   H16       1.0  0.35698  0.62690  0.61348  1.0000
  H   H17       1.0  0.43803  0.16335  0.52915  1.0000
  H   H18       1.0  0.56195  0.83663  0.47084  1.0000
  H   H19       1.0  0.31485  0.12491  0.35951  1.0000
  H   H20       1.0  0.68514  0.87511  0.64046  1.0000
  H   H21       1.0  0.96141  0.34343  0.18204  1.0000
  H   H22       1.0  0.03859  0.65658  0.81796  1.0000
  H   H23       1.0  0.22006  0.20666  0.10776  1.0000
  H   H24       1.0  0.77994  0.79335  0.89224  1.0000
  H   H25       1.0  0.82768  0.69202  0.11966  1.0000
  H   H26       1.0  0.17232  0.30799  0.88035  1.0000
  H   H27       1.0  0.99750  0.78782  0.00034  1.0000
  H   H28       1.0  0.00249  0.21219  0.99966  1.0000
  C   C1        1.0  0.22861  0.84599  0.33397  1.0000
  C   C2        1.0  0.77140  0.15401  0.66602  1.0000
  C   C3        1.0  0.33135  0.80356  0.20041  1.0000
  C   C4        1.0  0.66865  0.19644  0.79959  1.0000
  C   C5        1.0  0.19219  0.82543  0.14631  1.0000
  C   C6        1.0  0.80781  0.17456  0.85369  1.0000
  C   C7        1.0  0.00313  0.88554  0.24507  1.0000
  C   C8        1.0  0.99688  0.11445  0.75493  1.0000
  C   C9        1.0  0.02467  0.89777  0.36018  1.0000
  C   C10       1.0  0.97533  0.10223  0.63981  1.0000
  C   C11       1.0  0.46594  0.29939  0.20126  1.0000
  C   C12       1.0  0.53406  0.70062  0.79873  1.0000
  C   C13       1.0  0.57206  0.38124  0.21034  1.0000
  C   C14       1.0  0.42796  0.61875  0.78966  1.0000
  C   C15       1.0  0.57248  0.33333  0.34733  1.0000
  C   C16       1.0  0.42752  0.66665  0.65267  1.0000
  C   C17       1.0  0.46988  0.21841  0.42136  1.0000
  C   C18       1.0  0.53010  0.78157  0.57864  1.0000
  C   C19       1.0  0.40446  0.19786  0.33236  1.0000
  C   C20       1.0  0.59554  0.80214  0.66763  1.0000
  C   C21       1.0  0.08678  0.33521  0.08856  1.0000
  C   C22       1.0  0.91322  0.66480  0.91145  1.0000
  C   C23       1.0  0.95767  0.67082  0.02767  1.0000
  C   C24       1.0  0.04232  0.32919  0.97234  1.0000
  Cl  Cl1       1.0  0.92306  0.48871  0.39260  1.0000
  Cl  Cl2       1.0  0.07694  0.51129  0.60740  1.0000
  O   O1        1.0  0.12413  0.49687  0.05723  1.0000
  O   O2        1.0  0.87587  0.50313  0.94277  1.0000
