data_image0
_chemical_formula_structural       Tb2H24C32O22
_chemical_formula_sum              "Tb2 H24 C32 O22"
_cell_length_a       5.89365
_cell_length_b       9.8987
_cell_length_c       14.7545
_cell_angle_alpha    85.4675
_cell_angle_beta     88.8884
_cell_angle_gamma    74.4845

_space_group_name_H-M_alt    "P 1"
_space_group_IT_number       1

loop_
  _space_group_symop_operation_xyz
  'x, y, z'

loop_
  _atom_site_type_symbol
  _atom_site_label
  _atom_site_symmetry_multiplicity
  _atom_site_fract_x
  _atom_site_fract_y
  _atom_site_fract_z
  _atom_site_occupancy
  Tb  Tb1       1.0  0.82973  0.70739  0.95877  1.0000
  Tb  Tb2       1.0  0.17021  0.29265  0.04123  1.0000
  H   H1        1.0  0.37542  0.10598  0.48084  1.0000
  H   H2        1.0  0.62460  0.89403  0.51915  1.0000
  H   H3        1.0  0.04308  0.84488  0.79994  1.0000
  H   H4        1.0  0.95691  0.15514  0.20006  1.0000
  H   H5        1.0  0.20062  0.84915  0.88662  1.0000
  H   H6        1.0  0.79935  0.15087  0.11339  1.0000
  H   H7        1.0  0.27056  0.60553  0.06888  1.0000
  H   H8        1.0  0.72938  0.39450  0.93112  1.0000
  H   H9        1.0  0.20294  0.77094  0.07516  1.0000
  H   H10       1.0  0.79702  0.22909  0.92483  1.0000
  H   H11       1.0  0.39738  0.31981  0.35775  1.0000
  H   H12       1.0  0.60260  0.68018  0.64223  1.0000
  H   H13       1.0  0.63103  0.38519  0.47815  1.0000
  H   H14       1.0  0.36899  0.61476  0.52184  1.0000
  H   H15       1.0  0.89854  0.53991  0.43506  1.0000
  H   H16       1.0  0.10156  0.46000  0.56493  1.0000
  H   H17       1.0  0.28214  0.70843  0.36281  1.0000
  H   H18       1.0  0.71787  0.29156  0.63720  1.0000
  H   H19       1.0  0.86787  0.14016  0.36330  1.0000
  H   H20       1.0  0.13215  0.85984  0.63671  1.0000
  H   H21       1.0  0.55652  0.08429  0.27216  1.0000
  H   H22       1.0  0.44351  0.91570  0.72785  1.0000
  H   H23       1.0  0.60861  0.83851  0.22828  1.0000
  H   H24       1.0  0.39139  0.16149  0.77173  1.0000
  C   C1        1.0  0.81938  0.55160  0.29285  1.0000
  C   C2        1.0  0.18068  0.44835  0.70715  1.0000
  C   C3        1.0  0.69180  0.51385  0.22461  1.0000
  C   C4        1.0  0.30824  0.48614  0.77539  1.0000
  C   C5        1.0  0.53894  0.42958  0.24914  1.0000
  C   C6        1.0  0.46108  0.57041  0.75085  1.0000
  C   C7        1.0  0.51720  0.38486  0.34059  1.0000
  C   C8        1.0  0.48283  0.61510  0.65939  1.0000
  C   C9        1.0  0.64640  0.42305  0.40761  1.0000
  C   C10       1.0  0.35364  0.57689  0.59238  1.0000
  C   C11       1.0  0.79676  0.50771  0.38398  1.0000
  C   C12       1.0  0.20332  0.49221  0.61602  1.0000
  C   C13       1.0  0.72486  0.56981  0.12901  1.0000
  C   C14       1.0  0.27511  0.43021  0.87101  1.0000
  C   C15       1.0  0.40041  0.38581  0.17884  1.0000
  C   C16       1.0  0.59955  0.61422  0.82115  1.0000
  C   C17       1.0  0.94653  0.76065  0.29407  1.0000
  C   C18       1.0  0.05348  0.23933  0.70595  1.0000
  C   C19       1.0  0.12335  0.79080  0.34354  1.0000
  C   C20       1.0  0.87667  0.20918  0.65647  1.0000
  C   C21       1.0  0.09365  0.92823  0.36851  1.0000
  C   C22       1.0  0.90636  0.07175  0.63149  1.0000
  C   C23       1.0  0.88969  0.03417  0.34261  1.0000
  C   C24       1.0  0.11034  0.96583  0.65740  1.0000
  C   C25       1.0  0.71477  0.00196  0.29271  1.0000
  C   C26       1.0  0.28525  0.99803  0.70729  1.0000
  C   C27       1.0  0.74171  0.86512  0.26837  1.0000
  C   C28       1.0  0.25830  0.13487  0.73164  1.0000
  C   C29       1.0  0.27416  0.95790  0.42658  1.0000
  C   C30       1.0  0.72585  0.04210  0.57342  1.0000
  C   C31       1.0  0.60120  0.01314  0.02744  1.0000
  C   C32       1.0  0.39876  0.98691  0.97255  1.0000
  O   O1        1.0  0.98448  0.62494  0.26702  1.0000
  O   O2        1.0  0.01555  0.37505  0.73298  1.0000
  O   O3        1.0  0.61062  0.69383  0.10276  1.0000
  O   O4        1.0  0.38937  0.30620  0.89727  1.0000
  O   O5        1.0  0.88027  0.49751  0.07769  1.0000
  O   O6        1.0  0.11966  0.50252  0.92229  1.0000
  O   O7        1.0  0.40837  0.43515  0.09564  1.0000
  O   O8        1.0  0.59158  0.56489  0.90436  1.0000
  O   O9        1.0  0.28026  0.29897  0.20024  1.0000
  O   O10       1.0  0.71960  0.70111  0.79976  1.0000
  O   O11       1.0  0.24476  0.09213  0.43900  1.0000
  O   O12       1.0  0.75527  0.90787  0.56100  1.0000
  O   O13       1.0  0.43882  0.86115  0.46123  1.0000
  O   O14       1.0  0.56123  0.13885  0.53876  1.0000
  O   O15       1.0  0.79648  0.92317  0.02779  1.0000
  O   O16       1.0  0.20349  0.07688  0.97220  1.0000
  O   O17       1.0  0.55213  0.12646  0.06839  1.0000
  O   O18       1.0  0.44784  0.87358  0.93162  1.0000
  O   O19       1.0  0.05785  0.82375  0.86539  1.0000
  O   O20       1.0  0.94214  0.17626  0.13461  1.0000
  O   O21       1.0  0.14728  0.69485  0.05452  1.0000
  O   O22       1.0  0.85268  0.30517  0.94547  1.0000
