data_image0
_chemical_formula_structural       Gd2H24C32O22
_chemical_formula_sum              "Gd2 H24 C32 O22"
_cell_length_a       5.90919
_cell_length_b       9.91758
_cell_length_c       14.7457
_cell_angle_alpha    85.5272
_cell_angle_beta     88.9412
_cell_angle_gamma    74.4846

_space_group_name_H-M_alt    "P 1"
_space_group_IT_number       1

loop_
  _space_group_symop_operation_xyz
  'x, y, z'

loop_
  _atom_site_type_symbol
  _atom_site_label
  _atom_site_symmetry_multiplicity
  _atom_site_fract_x
  _atom_site_fract_y
  _atom_site_fract_z
  _atom_site_occupancy
  Gd  Gd1       1.0  0.82999  0.70716  0.45820  1.0000
  Gd  Gd2       1.0  0.16999  0.29285  0.54180  1.0000
  H   H1        1.0  0.62429  0.89421  0.01924  1.0000
  H   H2        1.0  0.37572  0.10578  0.98075  1.0000
  H   H3        1.0  0.27078  0.60563  0.56972  1.0000
  H   H4        1.0  0.72924  0.39436  0.43028  1.0000
  H   H5        1.0  0.20402  0.77098  0.57516  1.0000
  H   H6        1.0  0.79599  0.22900  0.42485  1.0000
  H   H7        1.0  0.04394  0.84718  0.29930  1.0000
  H   H8        1.0  0.95605  0.15283  0.70071  1.0000
  H   H9        1.0  0.20233  0.84824  0.38629  1.0000
  H   H10       1.0  0.79767  0.15177  0.61373  1.0000
  H   H11       1.0  0.59739  0.68004  0.14105  1.0000
  H   H12       1.0  0.40259  0.31999  0.85897  1.0000
  H   H13       1.0  0.36288  0.61450  0.02097  1.0000
  H   H14       1.0  0.63713  0.38552  0.97903  1.0000
  H   H15       1.0  0.09789  0.45920  0.06470  1.0000
  H   H16       1.0  0.90215  0.54079  0.93529  1.0000
  H   H17       1.0  0.71795  0.29081  0.13748  1.0000
  H   H18       1.0  0.28204  0.70920  0.86251  1.0000
  H   H19       1.0  0.13241  0.86013  0.13621  1.0000
  H   H20       1.0  0.86759  0.13987  0.86379  1.0000
  H   H21       1.0  0.44236  0.91597  0.22779  1.0000
  H   H22       1.0  0.55767  0.08403  0.77220  1.0000
  H   H23       1.0  0.39025  0.16163  0.27160  1.0000
  H   H24       1.0  0.60976  0.83837  0.72839  1.0000
  C   C1        1.0  0.17910  0.44780  0.20688  1.0000
  C   C2        1.0  0.82091  0.55220  0.79311  1.0000
  C   C3        1.0  0.30715  0.48558  0.27495  1.0000
  C   C4        1.0  0.69286  0.51441  0.72505  1.0000
  C   C5        1.0  0.45891  0.56996  0.24997  1.0000
  C   C6        1.0  0.54109  0.43004  0.75003  1.0000
  C   C7        1.0  0.47859  0.61482  0.15843  1.0000
  C   C8        1.0  0.52143  0.38519  0.84158  1.0000
  C   C9        1.0  0.34910  0.57646  0.09161  1.0000
  C   C10       1.0  0.65092  0.42355  0.90839  1.0000
  C   C11       1.0  0.20015  0.49151  0.11559  1.0000
  C   C12       1.0  0.79987  0.50849  0.88440  1.0000
  C   C13       1.0  0.27537  0.42927  0.37054  1.0000
  C   C14       1.0  0.72464  0.57072  0.62946  1.0000
  C   C15       1.0  0.59869  0.61341  0.31996  1.0000
  C   C16       1.0  0.40131  0.38660  0.68005  1.0000
  C   C17       1.0  0.05325  0.23894  0.20578  1.0000
  C   C18       1.0  0.94676  0.76105  0.79421  1.0000
  C   C19       1.0  0.87661  0.20863  0.15650  1.0000
  C   C20       1.0  0.12338  0.79137  0.84350  1.0000
  C   C21       1.0  0.90641  0.07152  0.13133  1.0000
  C   C22       1.0  0.09359  0.92848  0.86866  1.0000
  C   C23       1.0  0.11017  0.96589  0.15707  1.0000
  C   C24       1.0  0.88983  0.03411  0.84293  1.0000
  C   C25       1.0  0.28466  0.99816  0.20702  1.0000
  C   C26       1.0  0.71536  0.00183  0.79297  1.0000
  C   C27       1.0  0.25771  0.13479  0.23142  1.0000
  C   C28       1.0  0.74231  0.86520  0.76857  1.0000
  C   C29       1.0  0.72570  0.04184  0.07347  1.0000
  C   C30       1.0  0.27431  0.95815  0.92653  1.0000
  C   C31       1.0  0.60139  0.01325  0.52728  1.0000
  C   C32       1.0  0.39856  0.98675  0.47273  1.0000
  O   O1        1.0  0.01496  0.37437  0.23294  1.0000
  O   O2        1.0  0.98505  0.62563  0.76705  1.0000
  O   O3        1.0  0.38933  0.30530  0.39628  1.0000
  O   O4        1.0  0.61068  0.69469  0.60372  1.0000
  O   O5        1.0  0.12118  0.50135  0.42226  1.0000
  O   O6        1.0  0.87882  0.49865  0.57774  1.0000
  O   O7        1.0  0.59239  0.56347  0.40310  1.0000
  O   O8        1.0  0.40763  0.43651  0.59689  1.0000
  O   O9        1.0  0.71802  0.70027  0.29842  1.0000
  O   O10       1.0  0.28200  0.29974  0.70159  1.0000
  O   O11       1.0  0.56146  0.13842  0.03887  1.0000
  O   O12       1.0  0.43856  0.86157  0.96112  1.0000
  O   O13       1.0  0.75473  0.90783  0.06112  1.0000
  O   O14       1.0  0.24528  0.09215  0.93888  1.0000
  O   O15       1.0  0.79678  0.92417  0.52685  1.0000
  O   O16       1.0  0.20315  0.07585  0.47314  1.0000
  O   O17       1.0  0.55240  0.12592  0.56880  1.0000
  O   O18       1.0  0.44753  0.87410  0.43120  1.0000
  O   O19       1.0  0.14884  0.69501  0.55425  1.0000
  O   O20       1.0  0.85115  0.30498  0.44576  1.0000
  O   O21       1.0  0.06151  0.82183  0.36433  1.0000
  O   O22       1.0  0.93846  0.17818  0.63569  1.0000
