data_image0
_chemical_formula_structural       NiH22C28N8O6
_chemical_formula_sum              "Ni1 H22 C28 N8 O6"
_cell_length_a       7.43535
_cell_length_b       10.4488
_cell_length_c       10.5715
_cell_angle_alpha    78.6547
_cell_angle_beta     72.1836
_cell_angle_gamma    60.0547

_space_group_name_H-M_alt    "P 1"
_space_group_IT_number       1

loop_
  _space_group_symop_operation_xyz
  'x, y, z'

loop_
  _atom_site_type_symbol
  _atom_site_label
  _atom_site_symmetry_multiplicity
  _atom_site_fract_x
  _atom_site_fract_y
  _atom_site_fract_z
  _atom_site_occupancy
  Ni  Ni1       1.0  1.00000  0.50000  0.00000  1.0000
  H   H1        1.0  0.28676  0.00732  0.98755  1.0000
  H   H2        1.0  0.71325  0.99267  0.01245  1.0000
  H   H3        1.0  0.39800  0.76536  0.90701  1.0000
  H   H4        1.0  0.60200  0.23464  0.09298  1.0000
  H   H5        1.0  0.99952  0.21689  0.09608  1.0000
  H   H6        1.0  0.00048  0.78310  0.90392  1.0000
  H   H7        1.0  0.89407  0.56716  0.28618  1.0000
  H   H8        1.0  0.10593  0.43284  0.71382  1.0000
  H   H9        1.0  0.89943  0.09071  0.31347  1.0000
  H   H10       1.0  0.10055  0.90930  0.68653  1.0000
  H   H11       1.0  0.71274  0.88244  0.52327  1.0000
  H   H12       1.0  0.28726  0.11756  0.47673  1.0000
  H   H13       1.0  0.78039  0.21726  0.52464  1.0000
  H   H14       1.0  0.21959  0.78276  0.47536  1.0000
  H   H15       1.0  0.60062  0.12596  0.60540  1.0000
  H   H16       1.0  0.39939  0.87404  0.39461  1.0000
  H   H17       1.0  0.65761  0.35626  0.70681  1.0000
  H   H18       1.0  0.34240  0.64374  0.29319  1.0000
  H   H19       1.0  0.66469  0.52050  0.91062  1.0000
  H   H20       1.0  0.33532  0.47951  0.08938  1.0000
  H   H21       1.0  0.60697  0.57229  0.05726  1.0000
  H   H22       1.0  0.39303  0.42772  0.94273  1.0000
  C   C1        1.0  0.44629  0.84320  0.84156  1.0000
  C   C2        1.0  0.55372  0.15679  0.15844  1.0000
  C   C3        1.0  0.74391  0.49088  0.53679  1.0000
  C   C4        1.0  0.25609  0.50913  0.46320  1.0000
  C   C5        1.0  0.63454  0.66399  0.66309  1.0000
  C   C6        1.0  0.36547  0.33600  0.33691  1.0000
  C   C7        1.0  0.89515  0.19669  0.31198  1.0000
  C   C8        1.0  0.10485  0.80331  0.68802  1.0000
  C   C9        1.0  0.44393  0.08054  0.80290  1.0000
  C   C10       1.0  0.55607  0.91945  0.19710  1.0000
  C   C11       1.0  0.37496  0.22774  0.85195  1.0000
  C   C12       1.0  0.62504  0.77226  0.14805  1.0000
  C   C13       1.0  0.89129  0.46255  0.29568  1.0000
  C   C14       1.0  0.10871  0.53745  0.70432  1.0000
  C   C15       1.0  0.62340  0.90964  0.62568  1.0000
  C   C16       1.0  0.37660  0.09036  0.37432  1.0000
  C   C17       1.0  0.56892  0.80652  0.71063  1.0000
  C   C18       1.0  0.43108  0.19347  0.28937  1.0000
  C   C19       1.0  0.82841  0.26739  0.42870  1.0000
  C   C20       1.0  0.17158  0.73261  0.57130  1.0000
  C   C21       1.0  0.95275  0.26455  0.19086  1.0000
  C   C22       1.0  0.04725  0.73545  0.80914  1.0000
  C   C23       1.0  0.56280  0.04459  0.67216  1.0000
  C   C24       1.0  0.43719  0.95541  0.32784  1.0000
  C   C25       1.0  0.82248  0.40469  0.42112  1.0000
  C   C26       1.0  0.17752  0.59532  0.57888  1.0000
  C   C27       1.0  0.38308  0.97926  0.88644  1.0000
  C   C28       1.0  0.61692  0.02074  0.11357  1.0000
  N   N1        1.0  0.71486  0.62881  0.53288  1.0000
  N   N2        1.0  0.28514  0.37119  0.46712  1.0000
  N   N3        1.0  0.95313  0.39484  0.18324  1.0000
  N   N4        1.0  0.04688  0.60516  0.81676  1.0000
  N   N5        1.0  0.61513  0.55417  0.74642  1.0000
  N   N6        1.0  0.38488  0.44583  0.25358  1.0000
  N   N7        1.0  0.68494  0.44546  0.66502  1.0000
  N   N8        1.0  0.31506  0.55454  0.33497  1.0000
  O   O1        1.0  0.18105  0.29092  0.91973  1.0000
  O   O2        1.0  0.81896  0.70908  0.08028  1.0000
  O   O3        1.0  0.71137  0.49299  0.99507  1.0000
  O   O4        1.0  0.28863  0.50702  0.00494  1.0000
  O   O5        1.0  0.50660  0.27900  0.82407  1.0000
  O   O6        1.0  0.49341  0.72100  0.17592  1.0000
