data_image0
_chemical_formula_structural       Hg4H24C32N20Cl4O4
_chemical_formula_sum              "Hg4 H24 C32 N20 Cl4 O4"
_cell_length_a       3.90364
_cell_length_b       12.6686
_cell_length_c       19.565
_cell_angle_alpha    90.0001
_cell_angle_beta     94.5486
_cell_angle_gamma    89.9999

_space_group_name_H-M_alt    "P 1"
_space_group_IT_number       1

loop_
  _space_group_symop_operation_xyz
  'x, y, z'

loop_
  _atom_site_type_symbol
  _atom_site_label
  _atom_site_symmetry_multiplicity
  _atom_site_fract_x
  _atom_site_fract_y
  _atom_site_fract_z
  _atom_site_occupancy
  Hg  Hg1       1.0  0.24669  0.99923  0.11081  1.0000
  Hg  Hg2       1.0  0.25331  0.49923  0.38919  1.0000
  Hg  Hg3       1.0  0.75331  0.00077  0.88920  1.0000
  Hg  Hg4       1.0  0.74669  0.50077  0.61080  1.0000
  H   H1        1.0  0.98274  0.25024  0.33497  1.0000
  H   H2        1.0  0.51727  0.75024  0.16503  1.0000
  H   H3        1.0  0.01727  0.74976  0.66503  1.0000
  H   H4        1.0  0.48273  0.24976  0.83497  1.0000
  H   H5        1.0  0.42999  0.13950  0.24841  1.0000
  H   H6        1.0  0.07000  0.63949  0.25159  1.0000
  H   H7        1.0  0.56999  0.86051  0.75160  1.0000
  H   H8        1.0  0.93000  0.36051  0.74840  1.0000
  H   H9        1.0  0.81976  0.08016  0.23180  1.0000
  H   H10       1.0  0.68023  0.58015  0.26820  1.0000
  H   H11       1.0  0.18023  0.91985  0.76820  1.0000
  H   H12       1.0  0.31977  0.41984  0.73180  1.0000
  H   H13       1.0  0.47909  0.19889  0.03891  1.0000
  H   H14       1.0  0.02090  0.69889  0.46109  1.0000
  H   H15       1.0  0.52090  0.80111  0.96109  1.0000
  H   H16       1.0  0.97910  0.30111  0.53891  1.0000
  H   H17       1.0  0.82128  0.43526  0.96549  1.0000
  H   H18       1.0  0.67872  0.93526  0.53451  1.0000
  H   H19       1.0  0.17873  0.56474  0.03451  1.0000
  H   H20       1.0  0.32127  0.06474  0.46549  1.0000
  H   H21       1.0  0.63040  0.31070  0.97791  1.0000
  H   H22       1.0  0.86960  0.81069  0.52208  1.0000
  H   H23       1.0  0.36959  0.68931  0.02209  1.0000
  H   H24       1.0  0.13040  0.18931  0.47791  1.0000
  C   C1        1.0  0.84735  0.38268  0.06507  1.0000
  C   C2        1.0  0.65264  0.88268  0.43494  1.0000
  C   C3        1.0  0.15265  0.61732  0.93493  1.0000
  C   C4        1.0  0.34736  0.11732  0.56507  1.0000
  C   C5        1.0  0.87427  0.31524  0.17604  1.0000
  C   C6        1.0  0.62573  0.81523  0.32396  1.0000
  C   C7        1.0  0.12572  0.68477  0.82396  1.0000
  C   C8        1.0  0.37428  0.18477  0.67604  1.0000
  C   C9        1.0  0.05808  0.40009  0.20337  1.0000
  C   C10       1.0  0.44193  0.90009  0.29663  1.0000
  C   C11       1.0  0.94192  0.59991  0.79664  1.0000
  C   C12       1.0  0.55809  0.09991  0.70336  1.0000
  C   C13       1.0  0.14987  0.48204  0.15612  1.0000
  C   C14       1.0  0.35013  0.98203  0.34388  1.0000
  C   C15       1.0  0.85014  0.51797  0.84388  1.0000
  C   C16       1.0  0.64987  0.01797  0.65611  1.0000
  C   C17       1.0  0.97995  0.28984  0.28583  1.0000
  C   C18       1.0  0.52007  0.78984  0.21417  1.0000
  C   C19       1.0  0.02006  0.71016  0.71417  1.0000
  C   C20       1.0  0.47994  0.21016  0.78583  1.0000
  C   C21       1.0  0.64295  0.14457  0.21488  1.0000
  C   C22       1.0  0.85704  0.64456  0.28512  1.0000
  C   C23       1.0  0.35703  0.85544  0.78513  1.0000
  C   C24       1.0  0.14296  0.35543  0.71487  1.0000
  C   C25       1.0  0.51772  0.13525  0.14041  1.0000
  C   C26       1.0  0.98227  0.63525  0.35959  1.0000
  C   C27       1.0  0.48227  0.86475  0.85960  1.0000
  C   C28       1.0  0.01772  0.36475  0.64041  1.0000
  C   C29       1.0  0.57318  0.20813  0.09230  1.0000
  C   C30       1.0  0.92681  0.70813  0.40770  1.0000
  C   C31       1.0  0.42682  0.79187  0.90771  1.0000
  C   C32       1.0  0.07318  0.29187  0.59229  1.0000
  N   N1        1.0  0.03270  0.46510  0.08835  1.0000
  N   N2        1.0  0.46730  0.96510  0.41165  1.0000
  N   N3        1.0  0.96732  0.53489  0.91165  1.0000
  N   N4        1.0  0.53270  0.03490  0.58835  1.0000
  N   N5        1.0  0.74092  0.37667  0.99870  1.0000
  N   N6        1.0  0.75907  0.87667  0.50130  1.0000
  N   N7        1.0  0.25909  0.62333  0.00131  1.0000
  N   N8        1.0  0.24092  0.12333  0.49869  1.0000
  N   N9        1.0  0.75884  0.30148  0.10888  1.0000
  N   N10       1.0  0.74115  0.80148  0.39112  1.0000
  N   N11       1.0  0.24115  0.69852  0.89113  1.0000
  N   N12       1.0  0.25885  0.19852  0.60887  1.0000
  N   N13       1.0  0.12251  0.38242  0.27343  1.0000
  N   N14       1.0  0.37751  0.88242  0.22657  1.0000
  N   N15       1.0  0.87750  0.61758  0.72657  1.0000
  N   N16       1.0  0.62250  0.11757  0.77343  1.0000
  N   N17       1.0  0.82416  0.24546  0.22691  1.0000
  N   N18       1.0  0.67584  0.74546  0.27309  1.0000
  N   N19       1.0  0.17583  0.75454  0.77309  1.0000
  N   N20       1.0  0.32417  0.25454  0.72691  1.0000
  Cl  Cl1       1.0  0.92045  0.85769  0.06004  1.0000
  Cl  Cl2       1.0  0.57956  0.35769  0.43996  1.0000
  Cl  Cl3       1.0  0.07956  0.14231  0.93996  1.0000
  Cl  Cl4       1.0  0.42044  0.64231  0.56004  1.0000
  O   O1        1.0  0.32564  0.56199  0.17241  1.0000
  O   O2        1.0  0.17435  0.06199  0.32758  1.0000
  O   O3        1.0  0.67438  0.43801  0.82758  1.0000
  O   O4        1.0  0.82564  0.93801  0.67241  1.0000
