data_image0
_chemical_formula_structural       Zn8H32C20O28
_chemical_formula_sum              "Zn8 H32 C20 O28"
_cell_length_a       9.62165
_cell_length_b       9.80656
_cell_length_c       10.6558
_cell_angle_alpha    102.105
_cell_angle_beta     97.763
_cell_angle_gamma    110.279

_space_group_name_H-M_alt    "P 1"
_space_group_IT_number       1

loop_
  _space_group_symop_operation_xyz
  'x, y, z'

loop_
  _atom_site_type_symbol
  _atom_site_label
  _atom_site_symmetry_multiplicity
  _atom_site_fract_x
  _atom_site_fract_y
  _atom_site_fract_z
  _atom_site_occupancy
  Zn  Zn1       1.0  0.38737  0.88945  0.18785  1.0000
  Zn  Zn2       1.0  0.61263  0.11055  0.81215  1.0000
  Zn  Zn3       1.0  0.12893  0.87211  0.33855  1.0000
  Zn  Zn4       1.0  0.87107  0.12789  0.66146  1.0000
  Zn  Zn5       1.0  0.49288  0.19901  0.43015  1.0000
  Zn  Zn6       1.0  0.50712  0.80099  0.56985  1.0000
  Zn  Zn7       1.0  0.22162  0.19438  0.56127  1.0000
  Zn  Zn8       1.0  0.77837  0.80562  0.43873  1.0000
  H   H1        1.0  0.89348  0.92250  0.28196  1.0000
  H   H2        1.0  0.10653  0.07750  0.71804  1.0000
  H   H3        1.0  0.08247  0.06969  0.95129  1.0000
  H   H4        1.0  0.91754  0.93031  0.04871  1.0000
  H   H5        1.0  0.99791  0.17504  0.14881  1.0000
  H   H6        1.0  0.00209  0.82495  0.85119  1.0000
  H   H7        1.0  0.04256  0.29595  0.04485  1.0000
  H   H8        1.0  0.95744  0.70405  0.95515  1.0000
  H   H9        1.0  0.14540  0.45008  0.26679  1.0000
  H   H10       1.0  0.85460  0.54991  0.73321  1.0000
  H   H11       1.0  0.30939  0.53455  0.12735  1.0000
  H   H12       1.0  0.69060  0.46544  0.87265  1.0000
  H   H13       1.0  0.50834  0.44988  0.07044  1.0000
  H   H14       1.0  0.49166  0.55012  0.92956  1.0000
  H   H15       1.0  0.46984  0.32123  0.16590  1.0000
  H   H16       1.0  0.53016  0.67877  0.83411  1.0000
  H   H17       1.0  0.24577  0.30533  0.92577  1.0000
  H   H18       1.0  0.75424  0.69467  0.07423  1.0000
  H   H19       1.0  0.66943  0.45764  0.35688  1.0000
  H   H20       1.0  0.33056  0.54235  0.64312  1.0000
  H   H21       1.0  0.69371  0.32151  0.27325  1.0000
  H   H22       1.0  0.30629  0.67849  0.72675  1.0000
  H   H23       1.0  0.15933  0.67523  0.51937  1.0000
  H   H24       1.0  0.84067  0.32477  0.48063  1.0000
  H   H25       1.0  0.01572  0.71482  0.53205  1.0000
  H   H26       1.0  0.98429  0.28518  0.46795  1.0000
  H   H27       1.0  0.25885  0.70027  0.29007  1.0000
  H   H28       1.0  0.74115  0.29973  0.70993  1.0000
  H   H29       1.0  0.63831  0.05208  0.29878  1.0000
  H   H30       1.0  0.36170  0.94792  0.70122  1.0000
  H   H31       1.0  0.35444  0.01191  0.54302  1.0000
  H   H32       1.0  0.64556  0.98809  0.45698  1.0000
  C   C1        1.0  0.21428  0.05466  0.11799  1.0000
  C   C2        1.0  0.78572  0.94535  0.88201  1.0000
  C   C3        1.0  0.16747  0.15142  0.03909  1.0000
  C   C4        1.0  0.83253  0.84858  0.96090  1.0000
  C   C5        1.0  0.09152  0.24633  0.11366  1.0000
  C   C6        1.0  0.90848  0.75367  0.88633  1.0000
  C   C7        1.0  0.20434  0.37692  0.23109  1.0000
  C   C8        1.0  0.79565  0.62308  0.76891  1.0000
  C   C9        1.0  0.34717  0.46983  0.18808  1.0000
  C   C10       1.0  0.65282  0.53017  0.81191  1.0000
  C   C11       1.0  0.41724  0.37534  0.10525  1.0000
  C   C12       1.0  0.58276  0.62466  0.89475  1.0000
  C   C13       1.0  0.29760  0.25216  0.98994  1.0000
  C   C14       1.0  0.70240  0.74784  0.01006  1.0000
  C   C15       1.0  0.24862  0.31828  0.34503  1.0000
  C   C16       1.0  0.75138  0.68172  0.65497  1.0000
  C   C17       1.0  0.46208  0.59012  0.30712  1.0000
  C   C18       1.0  0.53791  0.40988  0.69288  1.0000
  C   C19       1.0  0.36226  0.15986  0.89886  1.0000
  C   C20       1.0  0.63775  0.84014  0.10114  1.0000
  O   O1        1.0  0.13377  0.00661  0.19611  1.0000
  O   O2        1.0  0.86623  0.99339  0.80389  1.0000
  O   O3        1.0  0.33048  0.02521  0.09722  1.0000
  O   O4        1.0  0.66953  0.97479  0.90278  1.0000
  O   O5        1.0  0.38034  0.31479  0.36296  1.0000
  O   O6        1.0  0.61967  0.68521  0.63704  1.0000
  O   O7        1.0  0.15470  0.27856  0.41787  1.0000
  O   O8        1.0  0.84530  0.72143  0.58212  1.0000
  O   O9        1.0  0.40713  0.66467  0.38576  1.0000
  O   O10       1.0  0.59286  0.33532  0.61424  1.0000
  O   O11       1.0  0.60310  0.61383  0.32198  1.0000
  O   O12       1.0  0.39690  0.38618  0.67802  1.0000
  O   O13       1.0  0.50819  0.21343  0.91694  1.0000
  O   O14       1.0  0.49182  0.78657  0.08307  1.0000
  O   O15       1.0  0.27154  0.04376  0.80891  1.0000
  O   O16       1.0  0.72846  0.95625  0.19109  1.0000
  O   O17       1.0  0.30461  0.05003  0.47615  1.0000
  O   O18       1.0  0.69540  0.94997  0.52385  1.0000
  O   O19       1.0  0.21510  0.74930  0.23332  1.0000
  O   O20       1.0  0.78490  0.25070  0.76668  1.0000
  O   O21       1.0  0.55401  0.03988  0.34582  1.0000
  O   O22       1.0  0.44600  0.96013  0.65418  1.0000
  O   O23       1.0  0.09255  0.71794  0.47892  1.0000
  O   O24       1.0  0.90745  0.28206  0.52108  1.0000
  O   O25       1.0  0.92944  0.87271  0.34306  1.0000
  O   O26       1.0  0.07056  0.12729  0.65694  1.0000
  O   O27       1.0  0.69475  0.36948  0.36350  1.0000
  O   O28       1.0  0.30525  0.63052  0.63650  1.0000
