data_image0
_chemical_formula_structural       Zn2H32C34N4O12
_chemical_formula_sum              "Zn2 H32 C34 N4 O12"
_cell_length_a       9.24918
_cell_length_b       10.2104
_cell_length_c       11.0141
_cell_angle_alpha    107.869
_cell_angle_beta     100.945
_cell_angle_gamma    99.0562

_space_group_name_H-M_alt    "P 1"
_space_group_IT_number       1

loop_
  _space_group_symop_operation_xyz
  'x, y, z'

loop_
  _atom_site_type_symbol
  _atom_site_label
  _atom_site_symmetry_multiplicity
  _atom_site_fract_x
  _atom_site_fract_y
  _atom_site_fract_z
  _atom_site_occupancy
  Zn  Zn1       1.0  0.78637  0.64776  0.55282  1.0000
  Zn  Zn2       1.0  0.21363  0.35224  0.44718  1.0000
  H   H1        1.0  0.85825  0.68470  0.30596  1.0000
  H   H2        1.0  0.14175  0.31530  0.69404  1.0000
  H   H3        1.0  0.99625  0.56656  0.62833  1.0000
  H   H4        1.0  0.00376  0.43343  0.37167  1.0000
  H   H5        1.0  0.05813  0.66507  0.55454  1.0000
  H   H6        1.0  0.94188  0.33493  0.44546  1.0000
  H   H7        1.0  0.75352  0.55698  0.06318  1.0000
  H   H8        1.0  0.24648  0.44302  0.93681  1.0000
  H   H9        1.0  0.53934  0.34104  0.98293  1.0000
  H   H10       1.0  0.46066  0.65895  0.01707  1.0000
  H   H11       1.0  0.56262  0.39469  0.39081  1.0000
  H   H12       1.0  0.43737  0.60532  0.60919  1.0000
  H   H13       1.0  0.16918  0.10203  0.15675  1.0000
  H   H14       1.0  0.83082  0.89798  0.84325  1.0000
  H   H15       1.0  0.11822  0.92397  0.86589  1.0000
  H   H16       1.0  0.88178  0.07602  0.13411  1.0000
  H   H17       1.0  0.22786  0.89630  0.00244  1.0000
  H   H18       1.0  0.77214  0.10370  0.99756  1.0000
  H   H19       1.0  0.96763  0.73790  0.92295  1.0000
  H   H20       1.0  0.03237  0.26210  0.07706  1.0000
  H   H21       1.0  0.00121  0.85311  0.08805  1.0000
  H   H22       1.0  0.99879  0.14689  0.91195  1.0000
  H   H23       1.0  0.49061  0.93757  0.69755  1.0000
  H   H24       1.0  0.50939  0.06243  0.30245  1.0000
  H   H25       1.0  0.40128  0.16010  0.76063  1.0000
  H   H26       1.0  0.59872  0.83990  0.23937  1.0000
  H   H27       1.0  0.53459  0.37211  0.72361  1.0000
  H   H28       1.0  0.46541  0.62790  0.27639  1.0000
  H   H29       1.0  0.84836  0.13830  0.57014  1.0000
  H   H30       1.0  0.15164  0.86169  0.42986  1.0000
  H   H31       1.0  0.38167  0.22403  0.23473  1.0000
  H   H32       1.0  0.61833  0.77597  0.76527  1.0000
  C   C1        1.0  0.76875  0.58869  0.26692  1.0000
  C   C2        1.0  0.23125  0.41131  0.73308  1.0000
  C   C3        1.0  0.70877  0.51659  0.13251  1.0000
  C   C4        1.0  0.29123  0.48341  0.86749  1.0000
  C   C5        1.0  0.58953  0.39733  0.08751  1.0000
  C   C6        1.0  0.41047  0.60267  0.91249  1.0000
  C   C7        1.0  0.53145  0.35250  0.18081  1.0000
  C   C8        1.0  0.46854  0.64750  0.81918  1.0000
  C   C9        1.0  0.60232  0.42655  0.31476  1.0000
  C   C10       1.0  0.39767  0.57345  0.68524  1.0000
  C   C11       1.0  0.29204  0.18264  0.03830  1.0000
  C   C12       1.0  0.70797  0.81736  0.96169  1.0000
  C   C13       1.0  0.15312  0.09312  0.05270  1.0000
  C   C14       1.0  0.84688  0.90688  0.94730  1.0000
  C   C15       1.0  0.12863  0.93596  0.97023  1.0000
  C   C16       1.0  0.87137  0.06404  0.02977  1.0000
  C   C17       1.0  0.98661  0.84955  0.98534  1.0000
  C   C18       1.0  0.01339  0.15045  0.01466  1.0000
  C   C19       1.0  0.72944  0.89195  0.59132  1.0000
  C   C20       1.0  0.27055  0.10805  0.40868  1.0000
  C   C21       1.0  0.67536  0.02480  0.63052  1.0000
  C   C22       1.0  0.32465  0.97521  0.36948  1.0000
  C   C23       1.0  0.54971  0.03128  0.68434  1.0000
  C   C24       1.0  0.45029  0.96872  0.31566  1.0000
  C   C25       1.0  0.49876  0.15591  0.71864  1.0000
  C   C26       1.0  0.50125  0.84409  0.28136  1.0000
  C   C27       1.0  0.57309  0.27416  0.69846  1.0000
  C   C28       1.0  0.42691  0.72584  0.30154  1.0000
  C   C29       1.0  0.69932  0.26925  0.64516  1.0000
  C   C30       1.0  0.30068  0.73075  0.35484  1.0000
  C   C31       1.0  0.77699  0.39539  0.62143  1.0000
  C   C32       1.0  0.22302  0.60461  0.37857  1.0000
  C   C33       1.0  0.75086  0.14441  0.61203  1.0000
  C   C34       1.0  0.24915  0.85559  0.38797  1.0000
  N   N1        1.0  0.71663  0.54138  0.35595  1.0000
  N   N2        1.0  0.28336  0.45862  0.64404  1.0000
  N   N3        1.0  0.40577  0.24314  0.15289  1.0000
  N   N4        1.0  0.59423  0.75686  0.84711  1.0000
  O   O1        1.0  0.66342  0.78564  0.62019  1.0000
  O   O2        1.0  0.33659  0.21436  0.37981  1.0000
  O   O3        1.0  0.01005  0.66654  0.62865  1.0000
  O   O4        1.0  0.98995  0.33346  0.37135  1.0000
  O   O5        1.0  0.83412  0.87986  0.53431  1.0000
  O   O6        1.0  0.16588  0.12014  0.46569  1.0000
  O   O7        1.0  0.90626  0.39659  0.59625  1.0000
  O   O8        1.0  0.09374  0.60341  0.40375  1.0000
  O   O9        1.0  0.70926  0.49691  0.62733  1.0000
  O   O10       1.0  0.29074  0.50309  0.37268  1.0000
  O   O11       1.0  0.29929  0.20213  0.93392  1.0000
  O   O12       1.0  0.70071  0.79787  0.06608  1.0000
