data_image0
_chemical_formula_structural       Zn2H24C20N4O8
_chemical_formula_sum              "Zn2 H24 C20 N4 O8"
_cell_length_a       5.18169
_cell_length_b       10.2881
_cell_length_c       12.4782
_cell_angle_alpha    87.5105
_cell_angle_beta     82.048
_cell_angle_gamma    91.428

_space_group_name_H-M_alt    "P 1"
_space_group_IT_number       1

loop_
  _space_group_symop_operation_xyz
  'x, y, z'

loop_
  _atom_site_type_symbol
  _atom_site_label
  _atom_site_symmetry_multiplicity
  _atom_site_fract_x
  _atom_site_fract_y
  _atom_site_fract_z
  _atom_site_occupancy
  Zn  Zn1       1.0  0.25378  0.53983  0.73398  1.0000
  Zn  Zn2       1.0  0.74621  0.46017  0.26603  1.0000
  H   H1        1.0  0.69983  0.46035  0.65653  1.0000
  H   H2        1.0  0.30015  0.53966  0.34346  1.0000
  H   H3        1.0  0.72020  0.61717  0.65486  1.0000
  H   H4        1.0  0.27980  0.38283  0.34514  1.0000
  H   H5        1.0  0.11762  0.52799  0.93743  1.0000
  H   H6        1.0  0.88247  0.47202  0.06258  1.0000
  H   H7        1.0  0.30584  0.65917  0.89457  1.0000
  H   H8        1.0  0.69423  0.34085  0.10543  1.0000
  H   H9        1.0  0.72910  0.25424  0.61426  1.0000
  H   H10       1.0  0.27086  0.74576  0.38575  1.0000
  H   H11       1.0  0.55542  0.04801  0.55440  1.0000
  H   H12       1.0  0.44455  0.95199  0.44562  1.0000
  H   H13       1.0  0.74319  0.83678  0.60536  1.0000
  H   H14       1.0  0.25680  0.16323  0.39465  1.0000
  H   H15       1.0  0.26422  0.04157  0.78423  1.0000
  H   H16       1.0  0.73576  0.95843  0.21577  1.0000
  H   H17       1.0  0.79139  0.53809  0.47317  1.0000
  H   H18       1.0  0.20858  0.46191  0.52683  1.0000
  H   H19       1.0  0.53667  0.64900  0.49496  1.0000
  H   H20       1.0  0.46331  0.35101  0.50504  1.0000
  H   H21       1.0  0.69010  0.54217  0.89728  1.0000
  H   H22       1.0  0.30996  0.45783  0.10270  1.0000
  H   H23       1.0  0.50806  0.39251  0.91617  1.0000
  H   H24       1.0  0.49201  0.60749  0.08381  1.0000
  C   C1        1.0  0.12164  0.28607  0.73616  1.0000
  C   C2        1.0  0.87834  0.71392  0.26385  1.0000
  C   C3        1.0  0.00886  0.16182  0.70255  1.0000
  C   C4        1.0  0.99112  0.83818  0.29745  1.0000
  C   C5        1.0  0.80911  0.16221  0.63754  1.0000
  C   C6        1.0  0.19088  0.83778  0.36246  1.0000
  C   C7        1.0  0.71295  0.04587  0.60352  1.0000
  C   C8        1.0  0.28701  0.95412  0.39650  1.0000
  C   C9        1.0  0.81570  0.92788  0.63296  1.0000
  C   C10       1.0  0.18428  0.07210  0.36704  1.0000
  C   C11       1.0  0.01421  0.92575  0.69868  1.0000
  C   C12       1.0  0.98577  0.07426  0.30132  1.0000
  C   C13       1.0  0.10932  0.04303  0.73347  1.0000
  C   C14       1.0  0.89069  0.95696  0.26653  1.0000
  C   C15       1.0  0.13123  0.80155  0.73234  1.0000
  C   C16       1.0  0.86873  0.19845  0.26767  1.0000
  C   C17       1.0  0.59496  0.55039  0.51712  1.0000
  C   C18       1.0  0.40501  0.44961  0.48288  1.0000
  C   C19       1.0  0.50843  0.49452  0.93879  1.0000
  C   C20       1.0  0.49164  0.50547  0.06119  1.0000
  N   N1        1.0  0.60130  0.54184  0.63562  1.0000
  N   N2        1.0  0.39869  0.45816  0.36438  1.0000
  N   N3        1.0  0.29221  0.55867  0.89447  1.0000
  N   N4        1.0  0.70785  0.44133  0.10552  1.0000
  O   O1        1.0  0.01118  0.39392  0.70854  1.0000
  O   O2        1.0  0.98882  0.60610  0.29145  1.0000
  O   O3        1.0  0.31761  0.28712  0.78440  1.0000
  O   O4        1.0  0.68237  0.71288  0.21560  1.0000
  O   O5        1.0  0.30516  0.80454  0.79271  1.0000
  O   O6        1.0  0.69482  0.19546  0.20729  1.0000
  O   O7        1.0  0.04615  0.69364  0.69470  1.0000
  O   O8        1.0  0.95384  0.30635  0.30529  1.0000
