data_image0
_chemical_formula_structural       CoH20C18N4O6
_chemical_formula_sum              "Co1 H20 C18 N4 O6"
_cell_length_a       7.00652
_cell_length_b       8.51837
_cell_length_c       8.68136
_cell_angle_alpha    99.0214
_cell_angle_beta     113.421
_cell_angle_gamma    106.263

_space_group_name_H-M_alt    "P 1"
_space_group_IT_number       1

loop_
  _space_group_symop_operation_xyz
  'x, y, z'

loop_
  _atom_site_type_symbol
  _atom_site_label
  _atom_site_symmetry_multiplicity
  _atom_site_fract_x
  _atom_site_fract_y
  _atom_site_fract_z
  _atom_site_occupancy
  Co  Co1       1.0  0.50000  0.50000  0.50000  1.0000
  H   H1        1.0  0.18712  0.36430  0.84282  1.0000
  H   H2        1.0  0.81288  0.63569  0.15718  1.0000
  H   H3        1.0  0.32128  0.26103  0.11840  1.0000
  H   H4        1.0  0.67873  0.73897  0.88160  1.0000
  H   H5        1.0  0.43258  0.84899  0.43972  1.0000
  H   H6        1.0  0.56742  0.15101  0.56028  1.0000
  H   H7        1.0  0.34623  0.05381  0.27049  1.0000
  H   H8        1.0  0.65379  0.94619  0.72952  1.0000
  H   H9        1.0  0.20168  0.96741  0.94653  1.0000
  H   H10       1.0  0.79833  0.03260  0.05348  1.0000
  H   H11       1.0  0.14072  0.67660  0.78173  1.0000
  H   H12       1.0  0.85926  0.32341  0.21826  1.0000
  H   H13       1.0  0.03941  0.97019  0.33713  1.0000
  H   H14       1.0  0.96059  0.02980  0.66287  1.0000
  H   H15       1.0  0.81440  0.02322  0.34601  1.0000
  H   H16       1.0  0.18559  0.97677  0.65398  1.0000
  H   H17       1.0  0.83056  0.34359  0.50517  1.0000
  H   H18       1.0  0.16945  0.65641  0.49483  1.0000
  H   H19       1.0  0.77290  0.47115  0.39831  1.0000
  H   H20       1.0  0.22710  0.52885  0.60170  1.0000
  C   C1        1.0  0.31063  0.38527  0.11770  1.0000
  C   C2        1.0  0.68937  0.61473  0.88231  1.0000
  C   C3        1.0  0.37000  0.81249  0.29785  1.0000
  C   C4        1.0  0.63000  0.18751  0.70215  1.0000
  C   C5        1.0  0.32080  0.92517  0.20186  1.0000
  C   C6        1.0  0.67921  0.07483  0.79815  1.0000
  C   C7        1.0  0.23924  0.87647  0.01784  1.0000
  C   C8        1.0  0.76076  0.12353  0.98216  1.0000
  C   C9        1.0  0.20334  0.71392  0.92358  1.0000
  C   C10       1.0  0.79665  0.28609  0.07642  1.0000
  C   C11       1.0  0.25391  0.60156  0.02004  1.0000
  C   C12       1.0  0.74608  0.39844  0.97995  1.0000
  C   C13       1.0  0.33709  0.64888  0.20538  1.0000
  C   C14       1.0  0.66290  0.35112  0.79462  1.0000
  C   C15       1.0  0.13499  0.22781  0.49116  1.0000
  C   C16       1.0  0.86500  0.77219  0.50884  1.0000
  C   C17       1.0  0.99036  0.03800  0.42402  1.0000
  C   C18       1.0  0.00963  0.96200  0.57598  1.0000
  N   N1        1.0  0.23930  0.43438  0.97011  1.0000
  N   N2        1.0  0.76069  0.56562  0.02989  1.0000
  N   N3        1.0  0.37142  0.50968  0.26194  1.0000
  N   N4        1.0  0.62858  0.49032  0.73806  1.0000
  O   O1        1.0  0.26714  0.27608  0.42551  1.0000
  O   O2        1.0  0.73285  0.72392  0.57448  1.0000
  O   O3        1.0  0.11468  0.32738  0.60553  1.0000
  O   O4        1.0  0.88532  0.67262  0.39447  1.0000
  O   O5        1.0  0.70296  0.36204  0.41866  1.0000
  O   O6        1.0  0.29705  0.63796  0.58134  1.0000
