data_image0
_chemical_formula_structural       Cu2H12C16Br4N4
_chemical_formula_sum              "Cu2 H12 C16 Br4 N4"
_cell_length_a       6.91136
_cell_length_b       7.44171
_cell_length_c       10.199
_cell_angle_alpha    104.772
_cell_angle_beta     90.017
_cell_angle_gamma    117.782

_space_group_name_H-M_alt    "P 1"
_space_group_IT_number       1

loop_
  _space_group_symop_operation_xyz
  'x, y, z'

loop_
  _atom_site_type_symbol
  _atom_site_label
  _atom_site_symmetry_multiplicity
  _atom_site_fract_x
  _atom_site_fract_y
  _atom_site_fract_z
  _atom_site_occupancy
  Cu  Cu1       1.0  0.96232  0.92472  0.17038  1.0000
  Cu  Cu2       1.0  0.03764  0.07523  0.82963  1.0000
  H   H1        1.0  0.52866  0.69898  0.99704  1.0000
  H   H2        1.0  0.83162  0.30109  0.00273  1.0000
  H   H3        1.0  0.47135  0.30103  0.00297  1.0000
  H   H4        1.0  0.16836  0.69888  0.99728  1.0000
  H   H5        1.0  0.95162  0.18154  0.40918  1.0000
  H   H6        1.0  0.76927  0.81843  0.59068  1.0000
  H   H7        1.0  0.04837  0.81845  0.59083  1.0000
  H   H8        1.0  0.23074  0.18156  0.40931  1.0000
  H   H9        1.0  0.88014  0.39713  0.61120  1.0000
  H   H10       1.0  0.48098  0.60261  0.38902  1.0000
  H   H11       1.0  0.11988  0.60287  0.38881  1.0000
  H   H12       1.0  0.51900  0.39736  0.61099  1.0000
  C   C1        1.0  0.50287  0.80319  0.08334  1.0000
  C   C2        1.0  0.70100  0.19679  0.91661  1.0000
  C   C3        1.0  0.49712  0.19682  0.91667  1.0000
  C   C4        1.0  0.29898  0.80321  0.08340  1.0000
  C   C5        1.0  0.63313  0.05766  0.29347  1.0000
  C   C6        1.0  0.57527  0.94223  0.70648  1.0000
  C   C7        1.0  0.36689  0.94238  0.70650  1.0000
  C   C8        1.0  0.42473  0.05779  0.29351  1.0000
  C   C9        1.0  0.79569  0.18444  0.40901  1.0000
  C   C10       1.0  0.61036  0.81536  0.59098  1.0000
  C   C11       1.0  0.20431  0.81558  0.59098  1.0000
  C   C12       1.0  0.38967  0.18467  0.40903  1.0000
  C   C13       1.0  0.75528  0.30485  0.52094  1.0000
  C   C14       1.0  0.44880  0.69506  0.47914  1.0000
  C   C15       1.0  0.24476  0.69518  0.47906  1.0000
  C   C16       1.0  0.55122  0.30499  0.52085  1.0000
  Br  Br1       1.0  0.13762  0.27480  0.13173  1.0000
  Br  Br2       1.0  0.86234  0.72516  0.86827  1.0000
  Br  Br3       1.0  0.80076  0.60246  0.23800  1.0000
  Br  Br4       1.0  0.19924  0.39751  0.76199  1.0000
  N   N1        1.0  0.66871  0.93085  0.18398  1.0000
  N   N2        1.0  0.73836  0.06895  0.81599  1.0000
  N   N3        1.0  0.33129  0.06918  0.81602  1.0000
  N   N4        1.0  0.26162  0.93105  0.18403  1.0000
