data_image0
_chemical_formula_structural       Cd4H8C8N16O12
_chemical_formula_sum              "Cd4 H8 C8 N16 O12"
_cell_length_a       8.86222
_cell_length_b       8.8643
_cell_length_c       10.2019
_cell_angle_alpha    103.241
_cell_angle_beta     103.236
_cell_angle_gamma    118.211

_space_group_name_H-M_alt    "P 1"
_space_group_IT_number       1

loop_
  _space_group_symop_operation_xyz
  'x, y, z'

loop_
  _atom_site_type_symbol
  _atom_site_label
  _atom_site_symmetry_multiplicity
  _atom_site_fract_x
  _atom_site_fract_y
  _atom_site_fract_z
  _atom_site_occupancy
  Cd  Cd1       1.0  0.96306  0.46309  0.92606  1.0000
  Cd  Cd2       1.0  0.71296  0.71300  0.42605  1.0000
  Cd  Cd3       1.0  0.23714  0.23712  0.47428  1.0000
  Cd  Cd4       1.0  0.48716  0.98715  0.97425  1.0000
  H   H1        1.0  0.33949  0.61164  0.61087  1.0000
  H   H2        1.0  0.27150  0.99927  0.61085  1.0000
  H   H3        1.0  0.86154  0.08933  0.11091  1.0000
  H   H4        1.0  0.24935  0.02148  0.11097  1.0000
  H   H5        1.0  0.18792  0.46573  0.65690  1.0000
  H   H6        1.0  0.46911  0.19124  0.65693  1.0000
  H   H7        1.0  0.71559  0.93777  0.15694  1.0000
  H   H8        1.0  0.44130  0.21907  0.15698  1.0000
  C   C1        1.0  0.80501  0.06336  0.69176  1.0000
  C   C2        1.0  0.88668  0.62831  0.69165  1.0000
  C   C3        1.0  0.31327  0.55494  0.19176  1.0000
  C   C4        1.0  0.87847  0.63690  0.19182  1.0000
  C   C5        1.0  0.97292  0.17780  0.66473  1.0000
  C   C6        1.0  0.69181  0.48684  0.66467  1.0000
  C   C7        1.0  0.42788  0.72285  0.16484  1.0000
  C   C8        1.0  0.73695  0.44205  0.16488  1.0000
  N   N1        1.0  0.76234  0.13195  0.79771  1.0000
  N   N2        1.0  0.03532  0.66572  0.79762  1.0000
  N   N3        1.0  0.38177  0.51225  0.29773  1.0000
  N   N4        1.0  0.91591  0.78554  0.29777  1.0000
  N   N5        1.0  0.60009  0.98922  0.78270  1.0000
  N   N6        1.0  0.18255  0.79349  0.78263  1.0000
  N   N7        1.0  0.23903  0.34998  0.28264  1.0000
  N   N8        1.0  0.04359  0.93271  0.28267  1.0000
  N   N9        1.0  0.54623  0.83818  0.67192  1.0000
  N   N10       1.0  0.12560  0.83372  0.67182  1.0000
  N   N11       1.0  0.08799  0.29612  0.17182  1.0000
  N   N12       1.0  0.08382  0.87573  0.17186  1.0000
  N   N13       1.0  0.67298  0.88214  0.61300  1.0000
  N   N14       1.0  0.93994  0.73077  0.61287  1.0000
  N   N15       1.0  0.13200  0.42291  0.11296  1.0000
  N   N16       1.0  0.98094  0.69011  0.11301  1.0000
  O   O1        1.0  0.07957  0.34859  0.75142  1.0000
  O   O2        1.0  0.67192  0.40287  0.75145  1.0000
  O   O3        1.0  0.59866  0.82948  0.25154  1.0000
  O   O4        1.0  0.65287  0.42213  0.25158  1.0000
  O   O5        1.0  0.99156  0.09518  0.55672  1.0000
  O   O6        1.0  0.56515  0.46140  0.55663  1.0000
  O   O7        1.0  0.34532  0.74131  0.05665  1.0000
  O   O8        1.0  0.71144  0.31541  0.05675  1.0000
  O   O9        1.0  0.22195  0.48617  0.57299  1.0000
  O   O10       1.0  0.35119  0.08689  0.57300  1.0000
  O   O11       1.0  0.73602  0.97184  0.07303  1.0000
  O   O12       1.0  0.33700  0.10110  0.07309  1.0000
