data_image0
_chemical_formula_structural       Ag2H16C12N6O4
_chemical_formula_sum              "Ag2 H16 C12 N6 O4"
_cell_length_a       5.73981
_cell_length_b       7.60939
_cell_length_c       9.0778
_cell_angle_alpha    89.9941
_cell_angle_beta     102.968
_cell_angle_gamma    89.9856

_space_group_name_H-M_alt    "P 1"
_space_group_IT_number       1

loop_
  _space_group_symop_operation_xyz
  'x, y, z'

loop_
  _atom_site_type_symbol
  _atom_site_label
  _atom_site_symmetry_multiplicity
  _atom_site_fract_x
  _atom_site_fract_y
  _atom_site_fract_z
  _atom_site_occupancy
  Ag  Ag1       1.0  0.52500  0.71466  0.23764  1.0000
  Ag  Ag2       1.0  0.47508  0.21469  0.76236  1.0000
  H   H1        1.0  0.52165  0.74101  0.86322  1.0000
  H   H2        1.0  0.47844  0.24092  0.13679  1.0000
  H   H3        1.0  0.22457  0.93901  0.99713  1.0000
  H   H4        1.0  0.77537  0.43896  0.00287  1.0000
  H   H5        1.0  0.91830  0.98696  0.33444  1.0000
  H   H6        1.0  0.08162  0.48693  0.66557  1.0000
  H   H7        1.0  0.21713  0.98800  0.31426  1.0000
  H   H8        1.0  0.78278  0.48802  0.68571  1.0000
  H   H9        1.0  0.96696  0.64730  0.36697  1.0000
  H   H10       1.0  0.03310  0.14729  0.63301  1.0000
  H   H11       1.0  0.89227  0.83735  0.77316  1.0000
  H   H12       1.0  0.10770  0.33729  0.22685  1.0000
  H   H13       1.0  0.32037  0.53095  0.42288  1.0000
  H   H14       1.0  0.67974  0.03101  0.57709  1.0000
  H   H15       1.0  0.45355  0.70862  0.50942  1.0000
  H   H16       1.0  0.54644  0.20874  0.49057  1.0000
  C   C1        1.0  0.68843  0.78181  0.93763  1.0000
  C   C2        1.0  0.31162  0.28173  0.06239  1.0000
  C   C3        1.0  0.96222  0.86227  0.13667  1.0000
  C   C4        1.0  0.03774  0.36220  0.86333  1.0000
  C   C5        1.0  0.05526  0.88649  0.01050  1.0000
  C   C6        1.0  0.94472  0.38644  0.98951  1.0000
  C   C7        1.0  0.05560  0.90644  0.29931  1.0000
  C   C8        1.0  0.94434  0.40641  0.70069  1.0000
  C   C9        1.0  0.10625  0.74663  0.40645  1.0000
  C   C10       1.0  0.89377  0.24665  0.59354  1.0000
  C   C11       1.0  0.08748  0.80319  0.56661  1.0000
  C   C12       1.0  0.91250  0.30332  0.43339  1.0000
  N   N1        1.0  0.73242  0.79506  0.08838  1.0000
  N   N2        1.0  0.26759  0.29498  0.91164  1.0000
  N   N3        1.0  0.88052  0.83612  0.88761  1.0000
  N   N4        1.0  0.11949  0.33607  0.11241  1.0000
  N   N5        1.0  0.34152  0.66437  0.41109  1.0000
  N   N6        1.0  0.65852  0.16443  0.58889  1.0000
  O   O1        1.0  0.87559  0.82631  0.58647  1.0000
  O   O2        1.0  0.12439  0.32626  0.41348  1.0000
  O   O3        1.0  0.27892  0.82389  0.66482  1.0000
  O   O4        1.0  0.72104  0.32432  0.33525  1.0000
