data_image0
_chemical_formula_structural       Cu2H20C28N8O8
_chemical_formula_sum              "Cu2 H20 C28 N8 O8"
_cell_length_a       7.90675
_cell_length_b       9.17939
_cell_length_c       10.0284
_cell_angle_alpha    77.3138
_cell_angle_beta     78.5476
_cell_angle_gamma    81.1943

_space_group_name_H-M_alt    "P 1"
_space_group_IT_number       1

loop_
  _space_group_symop_operation_xyz
  'x, y, z'

loop_
  _atom_site_type_symbol
  _atom_site_label
  _atom_site_symmetry_multiplicity
  _atom_site_fract_x
  _atom_site_fract_y
  _atom_site_fract_z
  _atom_site_occupancy
  Cu  Cu1       1.0  0.59848  0.82987  0.85323  1.0000
  Cu  Cu2       1.0  0.40151  0.17013  0.14676  1.0000
  H   H1        1.0  0.74983  0.51149  0.16478  1.0000
  H   H2        1.0  0.25018  0.48852  0.83522  1.0000
  H   H3        1.0  0.83039  0.33354  0.37539  1.0000
  H   H4        1.0  0.16963  0.66647  0.62460  1.0000
  H   H5        1.0  0.78859  0.42281  0.59869  1.0000
  H   H6        1.0  0.21143  0.57719  0.40131  1.0000
  H   H7        1.0  0.58372  0.86224  0.40066  1.0000
  H   H8        1.0  0.41625  0.13775  0.59935  1.0000
  H   H9        1.0  0.25217  0.87115  0.74399  1.0000
  H   H10       1.0  0.74781  0.12886  0.25602  1.0000
  H   H11       1.0  0.06527  0.57252  0.10827  1.0000
  H   H12       1.0  0.93473  0.42746  0.89172  1.0000
  H   H13       1.0  0.41199  0.59574  0.10349  1.0000
  H   H14       1.0  0.58802  0.40422  0.89649  1.0000
  H   H15       1.0  0.85426  0.94124  0.57161  1.0000
  H   H16       1.0  0.14568  0.05883  0.42839  1.0000
  H   H17       1.0  0.04621  0.19014  0.80149  1.0000
  H   H18       1.0  0.95381  0.80987  0.19853  1.0000
  H   H19       1.0  0.79295  0.02187  0.97799  1.0000
  H   H20       1.0  0.20709  0.97809  0.02203  1.0000
  C   C1        1.0  0.62592  0.80805  0.14240  1.0000
  C   C2        1.0  0.37406  0.19194  0.85760  1.0000
  C   C3        1.0  0.66172  0.69638  0.27049  1.0000
  C   C4        1.0  0.33828  0.30361  0.72952  1.0000
  C   C5        1.0  0.72912  0.54727  0.26376  1.0000
  C   C6        1.0  0.27088  0.45273  0.73624  1.0000
  C   C7        1.0  0.77378  0.44826  0.38151  1.0000
  C   C8        1.0  0.22624  0.55175  0.61848  1.0000
  C   C9        1.0  0.75076  0.49755  0.50628  1.0000
  C   C10       1.0  0.24925  0.50245  0.49371  1.0000
  C   C11       1.0  0.68094  0.64622  0.51407  1.0000
  C   C12       1.0  0.31907  0.35378  0.48592  1.0000
  C   C13       1.0  0.63541  0.74601  0.39643  1.0000
  C   C14       1.0  0.36459  0.25399  0.60357  1.0000
  C   C15       1.0  0.66717  0.69194  0.65040  1.0000
  C   C16       1.0  0.33284  0.30806  0.34959  1.0000
  C   C17       1.0  0.24473  0.79306  0.84273  1.0000
  C   C18       1.0  0.75526  0.20694  0.15727  1.0000
  C   C19       1.0  0.15085  0.64310  0.03159  1.0000
  C   C20       1.0  0.84915  0.35689  0.96840  1.0000
  C   C21       1.0  0.32808  0.65253  0.03040  1.0000
  C   C22       1.0  0.67193  0.34745  0.96958  1.0000
  C   C23       1.0  0.87127  0.98848  0.65766  1.0000
  C   C24       1.0  0.12870  0.01155  0.34234  1.0000
  C   C25       1.0  0.96746  0.11610  0.77700  1.0000
  C   C26       1.0  0.03254  0.88390  0.22301  1.0000
  C   C27       1.0  0.84214  0.02982  0.86821  1.0000
  C   C28       1.0  0.15789  0.97016  0.13180  1.0000
  N   N1        1.0  0.38460  0.74582  0.90941  1.0000
  N   N2        1.0  0.61540  0.25418  0.09057  1.0000
  N   N3        1.0  0.10163  0.73157  0.91478  1.0000
  N   N4        1.0  0.89836  0.26843  0.08522  1.0000
  N   N5        1.0  0.78419  0.95017  0.79053  1.0000
  N   N6        1.0  0.21580  0.04984  0.20948  1.0000
  N   N7        1.0  0.98273  0.08950  0.64680  1.0000
  N   N8        1.0  0.01723  0.91053  0.35320  1.0000
  O   O1        1.0  0.65347  0.74978  0.03147  1.0000
  O   O2        1.0  0.34653  0.25021  0.96854  1.0000
  O   O3        1.0  0.58130  0.94273  0.14771  1.0000
  O   O4        1.0  0.41868  0.05727  0.85228  1.0000
  O   O5        1.0  0.58370  0.82537  0.66352  1.0000
  O   O6        1.0  0.41631  0.17461  0.33649  1.0000
  O   O7        1.0  0.73356  0.60680  0.74580  1.0000
  O   O8        1.0  0.26645  0.39320  0.25420  1.0000
