data_image0
_chemical_formula_structural       Ni2H32C32N4O20
_chemical_formula_sum              "Ni2 H32 C32 N4 O20"
_cell_length_a       9.18466
_cell_length_b       9.18445
_cell_length_c       11.5913
_cell_angle_alpha    67.5665
_cell_angle_beta     67.563
_cell_angle_gamma    71.1701

_space_group_name_H-M_alt    "P 1"
_space_group_IT_number       1

loop_
  _space_group_symop_operation_xyz
  'x, y, z'

loop_
  _atom_site_type_symbol
  _atom_site_label
  _atom_site_symmetry_multiplicity
  _atom_site_fract_x
  _atom_site_fract_y
  _atom_site_fract_z
  _atom_site_occupancy
  Ni  Ni1       1.0  0.50000  1.00000  0.00000  1.0000
  Ni  Ni2       1.0  0.00000  0.50000  0.49999  1.0000
  H   H1        1.0  0.95815  0.84049  0.13389  1.0000
  H   H2        1.0  0.15986  0.04165  0.36620  1.0000
  H   H3        1.0  0.04184  0.15951  0.86611  1.0000
  H   H4        1.0  0.84015  0.95836  0.63380  1.0000
  H   H5        1.0  0.79984  0.09511  0.86823  1.0000
  H   H6        1.0  0.90489  0.19980  0.63199  1.0000
  H   H7        1.0  0.20016  0.90490  0.13177  1.0000
  H   H8        1.0  0.09510  0.80022  0.36800  1.0000
  H   H9        1.0  0.78761  0.95793  0.99726  1.0000
  H   H10       1.0  0.04216  0.21203  0.50301  1.0000
  H   H11       1.0  0.21240  0.04208  0.00274  1.0000
  H   H12       1.0  0.95785  0.78797  0.49699  1.0000
  H   H13       1.0  0.57439  0.26339  0.90723  1.0000
  H   H14       1.0  0.73694  0.42530  0.59284  1.0000
  H   H15       1.0  0.42560  0.73662  0.09279  1.0000
  H   H16       1.0  0.26306  0.57470  0.40717  1.0000
  H   H17       1.0  0.54062  0.22377  0.79301  1.0000
  H   H18       1.0  0.77662  0.45911  0.70697  1.0000
  H   H19       1.0  0.45938  0.77623  0.20699  1.0000
  H   H20       1.0  0.22339  0.54089  0.29304  1.0000
  H   H21       1.0  0.38226  0.43366  0.03653  1.0000
  H   H22       1.0  0.56679  0.61737  0.46347  1.0000
  H   H23       1.0  0.61772  0.56635  0.96347  1.0000
  H   H24       1.0  0.43322  0.38266  0.53654  1.0000
  H   H25       1.0  0.29069  0.33529  0.73840  1.0000
  H   H26       1.0  0.66501  0.70898  0.76166  1.0000
  H   H27       1.0  0.70931  0.66471  0.26160  1.0000
  H   H28       1.0  0.33499  0.29102  0.23836  1.0000
  H   H29       1.0  0.00600  0.75120  0.86525  1.0000
  H   H30       1.0  0.24910  0.99357  0.63478  1.0000
  H   H31       1.0  0.99399  0.24880  0.13474  1.0000
  H   H32       1.0  0.75088  0.00644  0.36524  1.0000
  C   C1        1.0  0.14179  0.69094  0.05611  1.0000
  C   C2        1.0  0.30939  0.85792  0.44390  1.0000
  C   C3        1.0  0.85820  0.30905  0.94388  1.0000
  C   C4        1.0  0.69062  0.14208  0.55610  1.0000
  C   C5        1.0  0.18665  0.59843  0.96325  1.0000
  C   C6        1.0  0.40194  0.81292  0.53678  1.0000
  C   C7        1.0  0.81334  0.40157  0.03675  1.0000
  C   C8        1.0  0.59808  0.18705  0.46322  1.0000
  C   C9        1.0  0.31436  0.46407  0.96842  1.0000
  C   C10       1.0  0.53633  0.68525  0.53159  1.0000
  C   C11       1.0  0.68563  0.53593  0.03158  1.0000
  C   C12       1.0  0.46368  0.31475  0.46840  1.0000
  C   C13       1.0  0.35420  0.36994  0.88598  1.0000
  C   C14       1.0  0.63039  0.64548  0.61404  1.0000
  C   C15       1.0  0.64580  0.63006  0.11402  1.0000
  C   C16       1.0  0.36959  0.35453  0.38595  1.0000
  C   C17       1.0  0.26477  0.41076  0.79983  1.0000
  C   C18       1.0  0.58950  0.73490  0.70022  1.0000
  C   C19       1.0  0.73524  0.58923  0.20016  1.0000
  C   C20       1.0  0.41049  0.26509  0.29979  1.0000
  C   C21       1.0  0.14249  0.54914  0.79033  1.0000
  C   C22       1.0  0.45111  0.85718  0.70972  1.0000
  C   C23       1.0  0.85752  0.45086  0.20966  1.0000
  C   C24       1.0  0.54889  0.14283  0.29031  1.0000
  C   C25       1.0  0.10193  0.64378  0.87242  1.0000
  C   C26       1.0  0.35654  0.89767  0.62760  1.0000
  C   C27       1.0  0.89806  0.35622  0.12757  1.0000
  C   C28       1.0  0.64347  0.10232  0.37242  1.0000
  C   C29       1.0  0.05660  0.59680  0.68968  1.0000
  C   C30       1.0  0.40342  0.94316  0.81029  1.0000
  C   C31       1.0  0.94340  0.40320  0.31031  1.0000
  C   C32       1.0  0.59658  0.05684  0.18971  1.0000
  N   N1        1.0  0.48892  0.23806  0.88496  1.0000
  N   N2        1.0  0.76228  0.51078  0.61505  1.0000
  N   N3        1.0  0.51107  0.76192  0.11504  1.0000
  N   N4        1.0  0.23774  0.48922  0.38495  1.0000
  O   O1        1.0  0.22798  0.67914  0.12162  1.0000
  O   O2        1.0  0.32110  0.77176  0.37838  1.0000
  O   O3        1.0  0.77201  0.32086  0.87837  1.0000
  O   O4        1.0  0.67892  0.22824  0.62161  1.0000
  O   O5        1.0  0.99789  0.78716  0.06477  1.0000
  O   O6        1.0  0.21324  0.00188  0.43529  1.0000
  O   O7        1.0  0.00211  0.21284  0.93523  1.0000
  O   O8        1.0  0.78677  0.99813  0.56472  1.0000
  O   O9        1.0  0.07475  0.48413  0.64181  1.0000
  O   O10       1.0  0.51601  0.92517  0.85816  1.0000
  O   O11       1.0  0.92526  0.51585  0.35819  1.0000
  O   O12       1.0  0.48399  0.07482  0.14184  1.0000
  O   O13       1.0  0.97718  0.73851  0.65770  1.0000
  O   O14       1.0  0.26172  0.02262  0.84219  1.0000
  O   O15       1.0  0.02284  0.26149  0.34227  1.0000
  O   O16       1.0  0.73829  0.97738  0.15781  1.0000
  O   O17       1.0  0.78203  0.98480  0.90711  1.0000
  O   O18       1.0  0.01527  0.21736  0.59323  1.0000
  O   O19       1.0  0.21797  0.01520  0.09289  1.0000
  O   O20       1.0  0.98473  0.78264  0.40677  1.0000
