data_image0
_chemical_formula_structural       Fe2H26C40N4O18
_chemical_formula_sum              "Fe2 H26 C40 N4 O18"
_cell_length_a       9.10362
_cell_length_b       9.78652
_cell_length_c       10.4297
_cell_angle_alpha    79.7619
_cell_angle_beta     86.8256
_cell_angle_gamma    75.1899

_space_group_name_H-M_alt    "P 1"
_space_group_IT_number       1

loop_
  _space_group_symop_operation_xyz
  'x, y, z'

loop_
  _atom_site_type_symbol
  _atom_site_label
  _atom_site_symmetry_multiplicity
  _atom_site_fract_x
  _atom_site_fract_y
  _atom_site_fract_z
  _atom_site_occupancy
  Fe  Fe1       1.0  0.70288  0.26347  0.17534  1.0000
  Fe  Fe2       1.0  0.29712  0.73651  0.82466  1.0000
  H   H1        1.0  0.75167  0.39349  0.94679  1.0000
  H   H2        1.0  0.24832  0.60651  0.05320  1.0000
  H   H3        1.0  0.84308  0.42813  0.06817  1.0000
  H   H4        1.0  0.15692  0.57188  0.93183  1.0000
  H   H5        1.0  0.30958  0.05127  0.48072  1.0000
  H   H6        1.0  0.69042  0.94874  0.51927  1.0000
  H   H7        1.0  0.36843  0.70708  0.34292  1.0000
  H   H8        1.0  0.63156  0.29293  0.65708  1.0000
  H   H9        1.0  0.76895  0.65130  0.38533  1.0000
  H   H10       1.0  0.23104  0.34871  0.61468  1.0000
  H   H11       1.0  0.96037  0.09679  0.34536  1.0000
  H   H12       1.0  0.03963  0.90320  0.65463  1.0000
  H   H13       1.0  0.12290  0.84456  0.37063  1.0000
  H   H14       1.0  0.87711  0.15543  0.62937  1.0000
  H   H15       1.0  0.08517  0.68710  0.21551  1.0000
  H   H16       1.0  0.91486  0.31288  0.78450  1.0000
  H   H17       1.0  0.89677  0.78839  0.03814  1.0000
  H   H18       1.0  0.10325  0.21159  0.96187  1.0000
  H   H19       1.0  0.74247  0.91722  0.87299  1.0000
  H   H20       1.0  0.25753  0.08277  0.12700  1.0000
  H   H21       1.0  0.51022  0.04739  0.74650  1.0000
  H   H22       1.0  0.48978  0.95260  0.25349  1.0000
  H   H23       1.0  0.34230  0.27029  0.81943  1.0000
  H   H24       1.0  0.65770  0.72970  0.18055  1.0000
  H   H25       1.0  0.42275  0.35669  0.00835  1.0000
  H   H26       1.0  0.57725  0.64330  0.99164  1.0000
  C   C1        1.0  0.43602  0.48401  0.23427  1.0000
  C   C2        1.0  0.56396  0.51600  0.76572  1.0000
  C   C3        1.0  0.47258  0.48139  0.37318  1.0000
  C   C4        1.0  0.52740  0.51862  0.62682  1.0000
  C   C5        1.0  0.42614  0.61553  0.41285  1.0000
  C   C6        1.0  0.57385  0.38447  0.58717  1.0000
  C   C7        1.0  0.54805  0.36162  0.46262  1.0000
  C   C8        1.0  0.45194  0.63839  0.53739  1.0000
  C   C9        1.0  0.59564  0.20882  0.43839  1.0000
  C   C10       1.0  0.40436  0.79118  0.56161  1.0000
  C   C11       1.0  0.88588  0.42772  0.27283  1.0000
  C   C12       1.0  0.11411  0.57229  0.72716  1.0000
  C   C13       1.0  0.95075  0.46008  0.39004  1.0000
  C   C14       1.0  0.04925  0.53993  0.60997  1.0000
  C   C15       1.0  0.87108  0.58456  0.43524  1.0000
  C   C16       1.0  0.12892  0.41545  0.56477  1.0000
  C   C17       1.0  0.08200  0.37374  0.45551  1.0000
  C   C18       1.0  0.91800  0.62626  0.54449  1.0000
  C   C19       1.0  0.17225  0.23958  0.41039  1.0000
  C   C20       1.0  0.82775  0.76044  0.58961  1.0000
  C   C21       1.0  0.95085  0.02412  0.28065  1.0000
  C   C22       1.0  0.04915  0.97587  0.71935  1.0000
  C   C23       1.0  0.03974  0.88417  0.29297  1.0000
  C   C24       1.0  0.96027  0.11582  0.70703  1.0000
  C   C25       1.0  0.01935  0.79780  0.20601  1.0000
  C   C26       1.0  0.98066  0.20219  0.79400  1.0000
  C   C27       1.0  0.91372  0.85464  0.10671  1.0000
  C   C28       1.0  0.08629  0.14535  0.89329  1.0000
  C   C29       1.0  0.82748  0.99577  0.09934  1.0000
  C   C30       1.0  0.17251  0.00422  0.90066  1.0000
  C   C31       1.0  0.70229  0.06562  0.01034  1.0000
  C   C32       1.0  0.29772  0.93436  0.98966  1.0000
  C   C33       1.0  0.66834  0.01330  0.90230  1.0000
  C   C34       1.0  0.33167  0.98669  0.09770  1.0000
  C   C35       1.0  0.53840  0.08627  0.83119  1.0000
  C   C36       1.0  0.46161  0.91373  0.16881  1.0000
  C   C37       1.0  0.44631  0.20991  0.87030  1.0000
  C   C38       1.0  0.55369  0.79009  0.12969  1.0000
  C   C39       1.0  0.48774  0.25873  0.97675  1.0000
  C   C40       1.0  0.51226  0.74127  0.02325  1.0000
  N   N1        1.0  0.84697  0.07776  0.18657  1.0000
  N   N2        1.0  0.15302  0.92225  0.81343  1.0000
  N   N3        1.0  0.61408  0.18907  0.04483  1.0000
  N   N4        1.0  0.38592  0.81093  0.95518  1.0000
  O   O1        1.0  0.80936  0.35010  0.03169  1.0000
  O   O2        1.0  0.19062  0.64990  0.96831  1.0000
  O   O3        1.0  0.53768  0.43069  0.15354  1.0000
  O   O4        1.0  0.46231  0.56931  0.84647  1.0000
  O   O5        1.0  0.30518  0.55339  0.19638  1.0000
  O   O6        1.0  0.69481  0.44661  0.80363  1.0000
  O   O7        1.0  0.60156  0.17779  0.32170  1.0000
  O   O8        1.0  0.39842  0.82222  0.67831  1.0000
  O   O9        1.0  0.62450  0.11096  0.53616  1.0000
  O   O10       1.0  0.37552  0.88906  0.46382  1.0000
  O   O11       1.0  0.81749  0.32529  0.29727  1.0000
  O   O12       1.0  0.18251  0.67472  0.70273  1.0000
  O   O13       1.0  0.89232  0.50739  0.16487  1.0000
  O   O14       1.0  0.10768  0.49261  0.83515  1.0000
  O   O15       1.0  0.16408  0.21637  0.29900  1.0000
  O   O16       1.0  0.83593  0.78366  0.70100  1.0000
  O   O17       1.0  0.25891  0.15035  0.50459  1.0000
  O   O18       1.0  0.74108  0.84965  0.49540  1.0000
