data_image0
_chemical_formula_structural       Cd2H16C24N14O6
_chemical_formula_sum              "Cd2 H16 C24 N14 O6"
_cell_length_a       6.26098
_cell_length_b       10.7158
_cell_length_c       11.3375
_cell_angle_alpha    107.914
_cell_angle_beta     96.3579
_cell_angle_gamma    104.907

_space_group_name_H-M_alt    "P 1"
_space_group_IT_number       1

loop_
  _space_group_symop_operation_xyz
  'x, y, z'

loop_
  _atom_site_type_symbol
  _atom_site_label
  _atom_site_symmetry_multiplicity
  _atom_site_fract_x
  _atom_site_fract_y
  _atom_site_fract_z
  _atom_site_occupancy
  Cd  Cd1       1.0  0.31626  0.68841  0.30660  1.0000
  Cd  Cd2       1.0  0.68374  0.31159  0.69340  1.0000
  H   H1        1.0  0.22962  0.96347  0.50049  1.0000
  H   H2        1.0  0.77037  0.03653  0.49951  1.0000
  H   H3        1.0  0.06954  0.01992  0.69546  1.0000
  H   H4        1.0  0.93046  0.98008  0.30453  1.0000
  H   H5        1.0  0.05448  0.86618  0.82625  1.0000
  H   H6        1.0  0.94552  0.13382  0.17376  1.0000
  H   H7        1.0  0.20220  0.66577  0.75712  1.0000
  H   H8        1.0  0.79781  0.33423  0.24289  1.0000
  H   H9        1.0  0.37082  0.17197  0.20250  1.0000
  H   H10       1.0  0.62918  0.82803  0.79750  1.0000
  H   H11       1.0  0.25746  0.09372  0.97125  1.0000
  H   H12       1.0  0.74255  0.90628  0.02875  1.0000
  H   H13       1.0  0.19438  0.26320  0.86862  1.0000
  H   H14       1.0  0.80562  0.73680  0.13138  1.0000
  H   H15       1.0  0.23852  0.50375  0.00819  1.0000
  H   H16       1.0  0.76148  0.49625  0.99181  1.0000
  C   C1        1.0  0.22253  0.90086  0.56056  1.0000
  C   C2        1.0  0.77747  0.09914  0.43944  1.0000
  C   C3        1.0  0.13388  0.93210  0.66985  1.0000
  C   C4        1.0  0.86612  0.06789  0.33015  1.0000
  C   C5        1.0  0.12529  0.84682  0.74143  1.0000
  C   C6        1.0  0.87472  0.15318  0.25857  1.0000
  C   C7        1.0  0.20989  0.73555  0.70416  1.0000
  C   C8        1.0  0.79012  0.26445  0.29585  1.0000
  C   C9        1.0  0.30555  0.71493  0.59694  1.0000
  C   C10       1.0  0.69445  0.28507  0.40306  1.0000
  C   C11       1.0  0.41166  0.60404  0.55319  1.0000
  C   C12       1.0  0.58834  0.39596  0.44681  1.0000
  C   C13       1.0  0.45182  0.44034  0.37000  1.0000
  C   C14       1.0  0.54818  0.55966  0.62999  1.0000
  C   C15       1.0  0.37965  0.38324  0.22956  1.0000
  C   C16       1.0  0.62035  0.61676  0.77044  1.0000
  C   C17       1.0  0.34766  0.24546  0.15821  1.0000
  C   C18       1.0  0.65234  0.75454  0.84179  1.0000
  C   C19       1.0  0.28023  0.20056  0.02710  1.0000
  C   C20       1.0  0.71977  0.79944  0.97290  1.0000
  C   C21       1.0  0.24369  0.29351  0.97064  1.0000
  C   C22       1.0  0.75631  0.70649  0.02936  1.0000
  C   C23       1.0  0.26978  0.42792  0.04791  1.0000
  C   C24       1.0  0.73022  0.57208  0.95209  1.0000
  N   N1        1.0  0.30419  0.79415  0.52415  1.0000
  N   N2        1.0  0.69581  0.20585  0.47584  1.0000
  N   N3        1.0  0.37238  0.54306  0.42741  1.0000
  N   N4        1.0  0.62762  0.45694  0.57259  1.0000
  N   N5        1.0  0.33526  0.47158  0.17416  1.0000
  N   N6        1.0  0.66473  0.52842  0.82584  1.0000
  N   N7        1.0  0.27992  0.85895  0.15757  1.0000
  N   N8        1.0  0.72008  0.14104  0.84243  1.0000
  N   N9        1.0  0.71796  0.76233  0.35972  1.0000
  N   N10       1.0  0.28205  0.23767  0.64028  1.0000
  N   N11       1.0  0.81863  0.68388  0.32108  1.0000
  N   N12       1.0  0.18137  0.31613  0.67892  1.0000
  N   N13       1.0  0.91870  0.60494  0.28172  1.0000
  N   N14       1.0  0.08131  0.39507  0.71828  1.0000
  O   O1        1.0  0.30182  0.73875  0.11103  1.0000
  O   O2        1.0  0.69819  0.26125  0.88896  1.0000
  O   O3        1.0  0.26823  0.90186  0.27505  1.0000
  O   O4        1.0  0.73176  0.09813  0.72494  1.0000
  O   O5        1.0  0.26933  0.93108  0.09091  1.0000
  O   O6        1.0  0.73067  0.06892  0.90908  1.0000
