data_image0
_chemical_formula_structural       Cd2H16C24N12Cl2
_chemical_formula_sum              "Cd2 H16 C24 N12 Cl2"
_cell_length_a       8.34476
_cell_length_b       8.93953
_cell_length_c       10.1201
_cell_angle_alpha    72.7962
_cell_angle_beta     87.4814
_cell_angle_gamma    83.6362

_space_group_name_H-M_alt    "P 1"
_space_group_IT_number       1

loop_
  _space_group_symop_operation_xyz
  'x, y, z'

loop_
  _atom_site_type_symbol
  _atom_site_label
  _atom_site_symmetry_multiplicity
  _atom_site_fract_x
  _atom_site_fract_y
  _atom_site_fract_z
  _atom_site_occupancy
  Cd  Cd1       1.0  0.64638  0.32887  0.59366  1.0000
  Cd  Cd2       1.0  0.35362  0.67113  0.40634  1.0000
  H   H1        1.0  0.95808  0.44351  0.38686  1.0000
  H   H2        1.0  0.04192  0.55649  0.61314  1.0000
  H   H3        1.0  0.18148  0.32137  0.26986  1.0000
  H   H4        1.0  0.81852  0.67862  0.73014  1.0000
  H   H5        1.0  0.16236  0.04594  0.25401  1.0000
  H   H6        1.0  0.83764  0.95405  0.74599  1.0000
  H   H7        1.0  0.91436  0.91989  0.33272  1.0000
  H   H8        1.0  0.08564  0.08011  0.66728  1.0000
  H   H9        1.0  0.29571  0.85845  0.85819  1.0000
  H   H10       1.0  0.70428  0.14155  0.14181  1.0000
  H   H11       1.0  0.21395  0.94863  0.06272  1.0000
  H   H12       1.0  0.78605  0.05137  0.93728  1.0000
  H   H13       1.0  0.28448  0.21928  0.06435  1.0000
  H   H14       1.0  0.71552  0.78072  0.93564  1.0000
  H   H15       1.0  0.43869  0.37400  0.86580  1.0000
  H   H16       1.0  0.56130  0.62600  0.13420  1.0000
  C   C1        1.0  0.95025  0.32845  0.37190  1.0000
  C   C2        1.0  0.04975  0.67155  0.62809  1.0000
  C   C3        1.0  0.07618  0.25900  0.30775  1.0000
  C   C4        1.0  0.92382  0.74100  0.69225  1.0000
  C   C5        1.0  0.06385  0.10927  0.29605  1.0000
  C   C6        1.0  0.93615  0.89073  0.70395  1.0000
  C   C7        1.0  0.92339  0.03759  0.34070  1.0000
  C   C8        1.0  0.07660  0.96241  0.65931  1.0000
  C   C9        1.0  0.79896  0.11856  0.39704  1.0000
  C   C10       1.0  0.20104  0.88144  0.60296  1.0000
  C   C11       1.0  0.64302  0.05407  0.44502  1.0000
  C   C12       1.0  0.35697  0.94593  0.55497  1.0000
  C   C13       1.0  0.44339  0.03231  0.61943  1.0000
  C   C14       1.0  0.55661  0.96769  0.38057  1.0000
  C   C15       1.0  0.39682  0.07390  0.74873  1.0000
  C   C16       1.0  0.60318  0.92610  0.25128  1.0000
  C   C17       1.0  0.31864  0.97504  0.86033  1.0000
  C   C18       1.0  0.68136  0.02496  0.13967  1.0000
  C   C19       1.0  0.27531  0.02605  0.97569  1.0000
  C   C20       1.0  0.72469  0.97395  0.02431  1.0000
  C   C21       1.0  0.31417  0.17303  0.97728  1.0000
  C   C22       1.0  0.68584  0.82697  0.02272  1.0000
  C   C23       1.0  0.39996  0.26152  0.86535  1.0000
  C   C24       1.0  0.60004  0.73848  0.13465  1.0000
  N   N1        1.0  0.81574  0.25894  0.41713  1.0000
  N   N2        1.0  0.18426  0.74107  0.58287  1.0000
  N   N3        1.0  0.58174  0.08370  0.56045  1.0000
  N   N4        1.0  0.41826  0.91631  0.43955  1.0000
  N   N5        1.0  0.44070  0.21325  0.75387  1.0000
  N   N6        1.0  0.55930  0.78675  0.24613  1.0000
  N   N7        1.0  0.55765  0.58354  0.59088  1.0000
  N   N8        1.0  0.44235  0.41647  0.40913  1.0000
  N   N9        1.0  0.54408  0.62521  0.69385  1.0000
  N   N10       1.0  0.45593  0.37479  0.30614  1.0000
  N   N11       1.0  0.53075  0.67031  0.79161  1.0000
  N   N12       1.0  0.46925  0.32970  0.20840  1.0000
  Cl  Cl1       1.0  0.88090  0.29365  0.74944  1.0000
  Cl  Cl2       1.0  0.11910  0.70635  0.25057  1.0000
