data_image0
_chemical_formula_structural       Cu2H20C22S4N4Cl4
_chemical_formula_sum              "Cu2 H20 C22 S4 N4 Cl4"
_cell_length_a       10.9538
_cell_length_b       10.954
_cell_length_c       12.1642
_cell_angle_alpha    64.1641
_cell_angle_beta     64.1687
_cell_angle_gamma    61.2095

_space_group_name_H-M_alt    "P 1"
_space_group_IT_number       1

loop_
  _space_group_symop_operation_xyz
  'x, y, z'

loop_
  _atom_site_type_symbol
  _atom_site_label
  _atom_site_symmetry_multiplicity
  _atom_site_fract_x
  _atom_site_fract_y
  _atom_site_fract_z
  _atom_site_occupancy
  Cu  Cu1       1.0  0.50000  0.00000  0.50000  1.0000
  Cu  Cu2       1.0  0.00000  0.50000  0.00000  1.0000
  H   H1        1.0  0.41405  0.48832  0.75559  1.0000
  H   H2        1.0  0.51167  0.58592  0.74439  1.0000
  H   H3        1.0  0.58595  0.51167  0.24441  1.0000
  H   H4        1.0  0.48833  0.41408  0.25561  1.0000
  H   H5        1.0  0.70995  0.15225  0.36368  1.0000
  H   H6        1.0  0.84774  0.29003  0.13633  1.0000
  H   H7        1.0  0.29004  0.84775  0.63632  1.0000
  H   H8        1.0  0.15227  0.70997  0.86366  1.0000
  H   H9        1.0  0.77427  0.31742  0.40039  1.0000
  H   H10       1.0  0.68256  0.22573  0.09960  1.0000
  H   H11       1.0  0.22574  0.68257  0.59961  1.0000
  H   H12       1.0  0.31744  0.77427  0.90040  1.0000
  H   H13       1.0  0.43867  0.28517  0.76400  1.0000
  H   H14       1.0  0.71482  0.56131  0.73600  1.0000
  H   H15       1.0  0.56132  0.71484  0.23600  1.0000
  H   H16       1.0  0.28517  0.43870  0.26401  1.0000
  H   H17       1.0  0.39750  0.11684  0.71416  1.0000
  H   H18       1.0  0.88315  0.60248  0.78584  1.0000
  H   H19       1.0  0.60248  0.88317  0.28583  1.0000
  H   H20       1.0  0.11685  0.39753  0.21416  1.0000
  C   C1        1.0  0.52118  0.47881  0.74999  1.0000
  C   C2        1.0  0.47883  0.52119  0.25001  1.0000
  C   C3        1.0  0.65596  0.18220  0.45234  1.0000
  C   C4        1.0  0.81778  0.34404  0.04766  1.0000
  C   C5        1.0  0.34404  0.81780  0.54766  1.0000
  C   C6        1.0  0.18222  0.65596  0.95234  1.0000
  C   C7        1.0  0.69110  0.27394  0.47371  1.0000
  C   C8        1.0  0.72604  0.30890  0.02630  1.0000
  C   C9        1.0  0.30890  0.72605  0.52630  1.0000
  C   C10       1.0  0.27397  0.69110  0.97370  1.0000
  C   C11       1.0  0.61271  0.31642  0.58665  1.0000
  C   C12       1.0  0.68356  0.38729  0.91335  1.0000
  C   C13       1.0  0.38729  0.68357  0.41335  1.0000
  C   C14       1.0  0.31644  0.61272  0.08666  1.0000
  C   C15       1.0  0.50577  0.25765  0.67499  1.0000
  C   C16       1.0  0.74234  0.49421  0.82500  1.0000
  C   C17       1.0  0.49422  0.74236  0.32500  1.0000
  C   C18       1.0  0.25765  0.50580  0.17500  1.0000
  C   C19       1.0  0.47924  0.16457  0.64667  1.0000
  C   C20       1.0  0.83542  0.52074  0.85334  1.0000
  C   C21       1.0  0.52075  0.83544  0.35333  1.0000
  C   C22       1.0  0.16458  0.47926  0.14667  1.0000
  S   S1        1.0  0.65312  0.44218  0.60293  1.0000
  S   S2        1.0  0.55780  0.34688  0.89705  1.0000
  S   S3        1.0  0.34689  0.55781  0.39707  1.0000
  S   S4        1.0  0.44220  0.65313  0.10295  1.0000
  N   N1        1.0  0.55117  0.12787  0.53684  1.0000
  N   N2        1.0  0.87212  0.44882  0.96317  1.0000
  N   N3        1.0  0.44882  0.87213  0.46316  1.0000
  N   N4        1.0  0.12788  0.55119  0.03683  1.0000
  Cl  Cl1       1.0  0.48436  0.16059  0.30546  1.0000
  Cl  Cl2       1.0  0.83942  0.51562  0.19455  1.0000
  Cl  Cl3       1.0  0.51564  0.83941  0.69454  1.0000
  Cl  Cl4       1.0  0.16058  0.48438  0.80545  1.0000
