data_image0
_chemical_formula_structural       Cu2H20C22S4N4Cl4
_chemical_formula_sum              "Cu2 H20 C22 S4 N4 Cl4"
_cell_length_a       10.6997
_cell_length_b       10.7004
_cell_length_c       12.8159
_cell_angle_alpha    64.5117
_cell_angle_beta     64.5088
_cell_angle_gamma    66.5182

_space_group_name_H-M_alt    "P 1"
_space_group_IT_number       1

loop_
  _space_group_symop_operation_xyz
  'x, y, z'

loop_
  _atom_site_type_symbol
  _atom_site_label
  _atom_site_symmetry_multiplicity
  _atom_site_fract_x
  _atom_site_fract_y
  _atom_site_fract_z
  _atom_site_occupancy
  Cu  Cu1       1.0  0.49999  0.00001  1.00000  1.0000
  Cu  Cu2       1.0  1.00000  0.50000  0.50000  1.0000
  H   H1        1.0  0.40811  0.49075  0.25307  1.0000
  H   H2        1.0  0.50924  0.59187  0.24692  1.0000
  H   H3        1.0  0.59189  0.50925  0.74693  1.0000
  H   H4        1.0  0.49076  0.40813  0.75306  1.0000
  H   H5        1.0  0.42602  0.28764  0.25600  1.0000
  H   H6        1.0  0.71233  0.57401  0.24402  1.0000
  H   H7        1.0  0.57400  0.71235  0.74400  1.0000
  H   H8        1.0  0.28767  0.42601  0.75599  1.0000
  H   H9        1.0  0.38618  0.11473  0.20328  1.0000
  H   H10       1.0  0.88524  0.61383  0.29674  1.0000
  H   H11       1.0  0.61381  0.88527  0.79671  1.0000
  H   H12       1.0  0.11476  0.38618  0.70326  1.0000
  H   H13       1.0  0.76552  0.35484  0.90864  1.0000
  H   H14       1.0  0.64515  0.23449  0.59135  1.0000
  H   H15       1.0  0.23449  0.64513  0.09136  1.0000
  H   H16       1.0  0.35483  0.76553  0.40866  1.0000
  H   H17       1.0  0.70142  0.18539  0.86811  1.0000
  H   H18       1.0  0.81461  0.29860  0.63188  1.0000
  H   H19       1.0  0.29859  0.81461  0.13188  1.0000
  H   H20       1.0  0.18538  0.70142  0.36813  1.0000
  C   C1        1.0  0.51449  0.48551  0.25000  1.0000
  C   C2        1.0  0.48552  0.51449  0.75000  1.0000
  C   C3        1.0  0.49350  0.26754  0.16982  1.0000
  C   C4        1.0  0.73244  0.50652  0.33019  1.0000
  C   C5        1.0  0.50651  0.73246  0.83018  1.0000
  C   C6        1.0  0.26755  0.49349  0.66981  1.0000
  C   C7        1.0  0.46793  0.17181  0.13988  1.0000
  C   C8        1.0  0.82816  0.53208  0.36013  1.0000
  C   C9        1.0  0.53207  0.82818  0.86011  1.0000
  C   C10       1.0  0.17183  0.46793  0.63988  1.0000
  C   C11       1.0  0.68153  0.30291  0.97786  1.0000
  C   C12       1.0  0.69709  0.31848  0.52213  1.0000
  C   C13       1.0  0.31847  0.69708  0.02213  1.0000
  C   C14       1.0  0.30292  0.68152  0.47788  1.0000
  C   C15       1.0  0.64663  0.20837  0.95432  1.0000
  C   C16       1.0  0.79162  0.35338  0.54567  1.0000
  C   C17       1.0  0.35337  0.79162  0.04567  1.0000
  C   C18       1.0  0.20838  0.64663  0.45433  1.0000
  C   C19       1.0  0.60316  0.33553  0.08789  1.0000
  C   C20       1.0  0.66445  0.39685  0.41211  1.0000
  C   C21       1.0  0.39683  0.66446  0.91211  1.0000
  C   C22       1.0  0.33556  0.60316  0.58789  1.0000
  S   S1        1.0  0.64807  0.46033  0.10941  1.0000
  S   S2        1.0  0.53965  0.35194  0.39059  1.0000
  S   S3        1.0  0.35194  0.53965  0.89060  1.0000
  S   S4        1.0  0.46035  0.64806  0.60942  1.0000
  N   N1        1.0  0.54209  0.14207  0.03411  1.0000
  N   N2        1.0  0.85791  0.45792  0.46589  1.0000
  N   N3        1.0  0.45791  0.85791  0.96589  1.0000
  N   N4        1.0  0.14209  0.54209  0.53411  1.0000
  Cl  Cl1       1.0  0.47916  0.15987  0.81708  1.0000
  Cl  Cl2       1.0  0.84015  0.52084  0.68292  1.0000
  Cl  Cl3       1.0  0.52083  0.84013  0.18291  1.0000
  Cl  Cl4       1.0  0.15986  0.47916  0.31708  1.0000
