data_image0
_chemical_formula_structural       Ni2H24C16S4N4O8
_chemical_formula_sum              "Ni2 H24 C16 S4 N4 O8"
_cell_length_a       5.98397
_cell_length_b       9.79339
_cell_length_c       10.0949
_cell_angle_alpha    89.9993
_cell_angle_beta     89.9994
_cell_angle_gamma    90.1223

_space_group_name_H-M_alt    "P 1"
_space_group_IT_number       1

loop_
  _space_group_symop_operation_xyz
  'x, y, z'

loop_
  _atom_site_type_symbol
  _atom_site_label
  _atom_site_symmetry_multiplicity
  _atom_site_fract_x
  _atom_site_fract_y
  _atom_site_fract_z
  _atom_site_occupancy
  Ni  Ni1       1.0  0.14470  0.42281  0.47493  1.0000
  Ni  Ni2       1.0  0.85532  0.57720  0.97493  1.0000
  H   H1        1.0  0.14762  0.15712  0.47748  1.0000
  H   H2        1.0  0.85239  0.84289  0.97748  1.0000
  H   H3        1.0  0.94249  0.60204  0.59436  1.0000
  H   H4        1.0  0.05753  0.39795  0.09437  1.0000
  H   H5        1.0  0.35361  0.28414  0.24543  1.0000
  H   H6        1.0  0.64639  0.71586  0.74545  1.0000
  H   H7        1.0  0.13666  0.15835  0.25082  1.0000
  H   H8        1.0  0.86333  0.84165  0.75082  1.0000
  H   H9        1.0  0.53438  0.99307  0.51695  1.0000
  H   H10       1.0  0.46561  0.00692  0.01694  1.0000
  H   H11       1.0  0.77106  0.09316  0.46609  1.0000
  H   H12       1.0  0.22895  0.90683  0.96610  1.0000
  H   H13       1.0  0.44149  0.20686  0.61294  1.0000
  H   H14       1.0  0.55852  0.79315  0.11295  1.0000
  H   H15       1.0  0.35459  0.70799  0.47723  1.0000
  H   H16       1.0  0.64542  0.29202  0.97723  1.0000
  H   H17       1.0  0.26479  0.70683  0.64733  1.0000
  H   H18       1.0  0.73520  0.29318  0.14733  1.0000
  H   H19       1.0  0.81962  0.87784  0.33689  1.0000
  H   H20       1.0  0.18036  0.12215  0.83689  1.0000
  H   H21       1.0  0.09107  0.82357  0.28883  1.0000
  H   H22       1.0  0.90892  0.17642  0.78883  1.0000
  H   H23       1.0  0.72374  0.65980  0.42756  1.0000
  H   H24       1.0  0.27627  0.34019  0.92756  1.0000
  C   C1        1.0  0.29206  0.19309  0.29725  1.0000
  C   C2        1.0  0.70794  0.80690  0.79725  1.0000
  C   C3        1.0  0.58957  0.08145  0.45865  1.0000
  C   C4        1.0  0.41042  0.91855  0.95866  1.0000
  C   C5        1.0  0.47499  0.21183  0.50598  1.0000
  C   C6        1.0  0.52499  0.78818  0.00599  1.0000
  C   C7        1.0  0.61362  0.34327  0.48422  1.0000
  C   C8        1.0  0.38639  0.65672  0.98423  1.0000
  C   C9        1.0  0.21131  0.71874  0.54432  1.0000
  C   C10       1.0  0.78867  0.28127  0.04433  1.0000
  C   C11       1.0  0.96471  0.81797  0.36786  1.0000
  C   C12       1.0  0.03527  0.18202  0.86787  1.0000
  C   C13       1.0  0.90004  0.66842  0.39890  1.0000
  C   C14       1.0  0.09996  0.33159  0.89888  1.0000
  C   C15       1.0  0.92691  0.58166  0.27370  1.0000
  C   C16       1.0  0.07309  0.41834  0.77372  1.0000
  S   S1        1.0  0.08200  0.88566  0.51962  1.0000
  S   S2        1.0  0.91799  0.11434  0.01962  1.0000
  S   S3        1.0  0.50524  0.05680  0.28693  1.0000
  S   S4        1.0  0.49475  0.94320  0.78694  1.0000
  N   N1        1.0  0.25901  0.22477  0.43703  1.0000
  N   N2        1.0  0.74101  0.77523  0.93703  1.0000
  N   N3        1.0  0.03814  0.61867  0.51091  1.0000
  N   N4        1.0  0.96184  0.38133  0.01092  1.0000
  O   O1        1.0  0.50756  0.45329  0.46120  1.0000
  O   O2        1.0  0.49246  0.54671  0.96119  1.0000
  O   O3        1.0  0.82253  0.32885  0.49558  1.0000
  O   O4        1.0  0.17749  0.67115  0.99560  1.0000
  O   O5        1.0  0.05816  0.47927  0.27444  1.0000
  O   O6        1.0  0.94189  0.52073  0.77444  1.0000
  O   O7        1.0  0.81161  0.62333  0.17672  1.0000
  O   O8        1.0  0.18837  0.37665  0.67672  1.0000
