data_image0
_chemical_formula_structural       Zn2H24C16S4N4O8
_chemical_formula_sum              "Zn2 H24 C16 S4 N4 O8"
_cell_length_a       5.3558
_cell_length_b       9.68672
_cell_length_c       10.9453
_cell_angle_alpha    91.4795
_cell_angle_beta     90
_cell_angle_gamma    89.9995

_space_group_name_H-M_alt    "P 1"
_space_group_IT_number       1

loop_
  _space_group_symop_operation_xyz
  'x, y, z'

loop_
  _atom_site_type_symbol
  _atom_site_label
  _atom_site_symmetry_multiplicity
  _atom_site_fract_x
  _atom_site_fract_y
  _atom_site_fract_z
  _atom_site_occupancy
  Zn  Zn1       1.0  0.08941  0.96413  0.69895  1.0000
  Zn  Zn2       1.0  0.58943  0.03586  0.30105  1.0000
  H   H1        1.0  0.88683  0.16381  0.80674  1.0000
  H   H2        1.0  0.38686  0.83619  0.19326  1.0000
  H   H3        1.0  0.68731  0.89415  0.82420  1.0000
  H   H4        1.0  0.18732  0.10585  0.17581  1.0000
  H   H5        1.0  0.86557  0.85571  0.99584  1.0000
  H   H6        1.0  0.36556  0.14429  0.00416  1.0000
  H   H7        1.0  0.94152  0.68026  0.67796  1.0000
  H   H8        1.0  0.44154  0.31973  0.32204  1.0000
  H   H9        1.0  0.61791  0.73007  0.68136  1.0000
  H   H10       1.0  0.11793  0.26993  0.31865  1.0000
  H   H11       1.0  0.99689  0.62362  0.02742  1.0000
  H   H12       1.0  0.49689  0.37638  0.97258  1.0000
  H   H13       1.0  0.17272  0.61502  0.88957  1.0000
  H   H14       1.0  0.67273  0.38498  0.11043  1.0000
  H   H15       1.0  0.64912  0.22986  0.65306  1.0000
  H   H16       1.0  0.14916  0.77013  0.34693  1.0000
  H   H17       1.0  0.82282  0.44749  0.64294  1.0000
  H   H18       1.0  0.32288  0.55250  0.35707  1.0000
  H   H19       1.0  0.91422  0.38479  0.49388  1.0000
  H   H20       1.0  0.41429  0.61522  0.50613  1.0000
  H   H21       1.0  0.36326  0.22213  0.79541  1.0000
  H   H22       1.0  0.86328  0.77786  0.20458  1.0000
  H   H23       1.0  0.12252  0.33920  0.84502  1.0000
  H   H24       1.0  0.62255  0.66079  0.15497  1.0000
  C   C1        1.0  0.83791  0.11860  0.51920  1.0000
  C   C2        1.0  0.33792  0.88141  0.48080  1.0000
  C   C3        1.0  0.98029  0.81273  0.92107  1.0000
  C   C4        1.0  0.48029  0.18726  0.07893  1.0000
  C   C5        1.0  0.24157  0.87761  0.93427  1.0000
  C   C6        1.0  0.74157  0.12239  0.06573  1.0000
  C   C7        1.0  0.78543  0.71404  0.73665  1.0000
  C   C8        1.0  0.28545  0.28596  0.26336  1.0000
  C   C9        1.0  0.99984  0.65466  0.93207  1.0000
  C   C10       1.0  0.49985  0.34534  0.06793  1.0000
  C   C11       1.0  0.84725  0.22441  0.62563  1.0000
  C   C12       1.0  0.34728  0.77559  0.37437  1.0000
  C   C13       1.0  0.93149  0.36914  0.59222  1.0000
  C   C14       1.0  0.43154  0.63087  0.40780  1.0000
  C   C15       1.0  0.19218  0.27531  0.76779  1.0000
  C   C16       1.0  0.69220  0.72468  0.23221  1.0000
  S   S1        1.0  0.25612  0.38079  0.63747  1.0000
  S   S2        1.0  0.75618  0.61921  0.36252  1.0000
  S   S3        1.0  0.73057  0.58506  0.85167  1.0000
  S   S4        1.0  0.23058  0.41495  0.14834  1.0000
  N   N1        1.0  0.99741  0.17388  0.72977  1.0000
  N   N2        1.0  0.49743  0.82612  0.27023  1.0000
  N   N3        1.0  0.85215  0.84305  0.80362  1.0000
  N   N4        1.0  0.35216  0.15695  0.19638  1.0000
  O   O1        1.0  0.86136  0.99281  0.54372  1.0000
  O   O2        1.0  0.36137  0.00719  0.45628  1.0000
  O   O3        1.0  0.35285  0.86236  0.03353  1.0000
  O   O4        1.0  0.85285  0.13765  0.96647  1.0000
  O   O5        1.0  0.33520  0.94101  0.84276  1.0000
  O   O6        1.0  0.83521  0.05898  0.15723  1.0000
  O   O7        1.0  0.78443  0.16473  0.41423  1.0000
  O   O8        1.0  0.28443  0.83527  0.58576  1.0000
