data_image0
_chemical_formula_structural       Zn2H32C36N4Cl4O4
_chemical_formula_sum              "Zn2 H32 C36 N4 Cl4 O4"
_cell_length_a       8.20923
_cell_length_b       9.57932
_cell_length_c       12.259
_cell_angle_alpha    108.406
_cell_angle_beta     94.6321
_cell_angle_gamma    102.831

_space_group_name_H-M_alt    "P 1"
_space_group_IT_number       1

loop_
  _space_group_symop_operation_xyz
  'x, y, z'

loop_
  _atom_site_type_symbol
  _atom_site_label
  _atom_site_symmetry_multiplicity
  _atom_site_fract_x
  _atom_site_fract_y
  _atom_site_fract_z
  _atom_site_occupancy
  Zn  Zn1       1.0  0.94650  0.09298  0.17168  1.0000
  Zn  Zn2       1.0  0.58373  0.38810  0.81379  1.0000
  H   H1        1.0  0.07999  0.94632  0.31304  1.0000
  H   H2        1.0  0.18284  0.86822  0.47621  1.0000
  H   H3        1.0  0.18469  0.03053  0.68397  1.0000
  H   H4        1.0  0.07172  0.25969  0.71729  1.0000
  H   H5        1.0  0.89724  0.37400  0.64485  1.0000
  H   H6        1.0  0.86587  0.35049  0.49271  1.0000
  H   H7        1.0  0.10150  0.47647  0.40881  1.0000
  H   H8        1.0  0.34798  0.70216  0.44800  1.0000
  H   H9        1.0  0.48053  0.85964  0.65153  1.0000
  H   H10       1.0  0.13620  0.55997  0.77742  1.0000
  H   H11       1.0  0.37752  0.92837  0.88179  1.0000
  H   H12       1.0  0.36502  0.75616  0.91198  1.0000
  H   H13       1.0  0.61968  0.07325  0.88050  1.0000
  H   H14       1.0  0.92920  0.12154  0.87179  1.0000
  H   H15       1.0  0.06275  0.90033  0.84119  1.0000
  H   H16       1.0  0.88430  0.64620  0.82947  1.0000
  H   H17       1.0  0.65145  0.11459  0.68337  1.0000
  H   H18       1.0  0.69256  0.89099  0.52674  1.0000
  H   H19       1.0  0.60727  0.85981  0.31599  1.0000
  H   H20       1.0  0.47856  0.05334  0.27280  1.0000
  H   H21       1.0  0.35840  0.34423  0.48592  1.0000
  H   H22       1.0  0.33173  0.23016  0.33472  1.0000
  H   H23       1.0  0.63241  0.54975  0.57893  1.0000
  H   H24       1.0  0.86512  0.74160  0.54579  1.0000
  H   H25       1.0  0.91576  0.71680  0.34450  1.0000
  H   H26       1.0  0.51580  0.30160  0.20954  1.0000
  H   H27       1.0  0.67890  0.38146  0.07930  1.0000
  H   H28       1.0  0.71370  0.58221  0.11402  1.0000
  H   H29       1.0  0.95666  0.72682  0.12138  1.0000
  H   H30       1.0  0.26542  0.77108  0.11273  1.0000
  H   H31       1.0  0.40288  0.55725  0.11092  1.0000
  H   H32       1.0  0.22703  0.31521  0.12171  1.0000
  C   C1        1.0  0.01980  0.14461  0.42464  1.0000
  C   C2        1.0  0.07778  0.01077  0.40346  1.0000
  C   C3        1.0  0.13553  0.96943  0.49420  1.0000
  C   C4        1.0  0.13555  0.05752  0.61025  1.0000
  C   C5        1.0  0.07654  0.18519  0.63030  1.0000
  C   C6        1.0  0.95862  0.36615  0.56770  1.0000
  C   C7        1.0  0.10223  0.50617  0.59069  1.0000
  C   C8        1.0  0.16186  0.54611  0.49782  1.0000
  C   C9        1.0  0.29866  0.67267  0.52015  1.0000
  C   C10       1.0  0.37393  0.76073  0.63471  1.0000
  C   C11       1.0  0.31587  0.72205  0.72822  1.0000
  C   C12       1.0  0.18030  0.59368  0.70536  1.0000
  C   C13       1.0  0.40401  0.81597  0.85167  1.0000
  C   C14       1.0  0.68576  0.98354  0.86766  1.0000
  C   C15       1.0  0.85577  0.00773  0.86225  1.0000
  C   C16       1.0  0.92813  0.88377  0.84565  1.0000
  C   C17       1.0  0.83092  0.74290  0.83831  1.0000
  C   C18       1.0  0.65630  0.71978  0.84720  1.0000
  C   C19       1.0  0.54116  0.20534  0.56512  1.0000
  C   C20       1.0  0.61210  0.09527  0.59171  1.0000
  C   C21       1.0  0.63559  0.97292  0.50456  1.0000
  C   C22       1.0  0.58722  0.95309  0.38693  1.0000
  C   C23       1.0  0.51837  0.05958  0.36156  1.0000
  C   C24       1.0  0.42329  0.29379  0.41501  1.0000
  C   C25       1.0  0.55887  0.41482  0.39628  1.0000
  C   C26       1.0  0.65692  0.53920  0.49102  1.0000
  C   C27       1.0  0.78600  0.64665  0.47199  1.0000
  C   C28       1.0  0.81548  0.63195  0.35890  1.0000
  C   C29       1.0  0.71821  0.50853  0.26370  1.0000
  C   C30       1.0  0.59064  0.39978  0.28325  1.0000
  C   C31       1.0  0.75045  0.49310  0.14129  1.0000
  C   C32       1.0  0.02547  0.64250  0.12470  1.0000
  C   C33       1.0  0.19521  0.66408  0.11895  1.0000
  C   C34       1.0  0.26964  0.54507  0.11891  1.0000
  C   C35       1.0  0.17397  0.41095  0.12542  1.0000
  C   C36       1.0  0.99887  0.38984  0.13235  1.0000
  N   N1        1.0  0.01917  0.22643  0.54078  1.0000
  N   N2        1.0  0.58865  0.84338  0.85729  1.0000
  N   N3        1.0  0.49560  0.18114  0.44752  1.0000
  N   N4        1.0  0.93131  0.51108  0.13307  1.0000
  Cl  Cl1       1.0  0.72778  0.88690  0.12751  1.0000
  Cl  Cl2       1.0  0.19190  0.04124  0.12367  1.0000
  Cl  Cl3       1.0  0.40398  0.24600  0.88838  1.0000
  Cl  Cl4       1.0  0.85576  0.38119  0.85026  1.0000
  O   O1        1.0  0.97179  0.19652  0.34725  1.0000
  O   O2        1.0  0.89694  0.26991  0.13666  1.0000
  O   O3        1.0  0.55452  0.59681  0.84599  1.0000
  O   O4        1.0  0.51774  0.32410  0.63942  1.0000
