data_image0
_chemical_formula_structural       MnH4C6S2N4
_chemical_formula_sum              "Mn1 H4 C6 S2 N4"
_cell_length_a       5.68938
_cell_length_b       6.41394
_cell_length_c       6.41386
_cell_angle_alpha    70.9999
_cell_angle_beta     87.5018
_cell_angle_gamma    87.504

_space_group_name_H-M_alt    "P 1"
_space_group_IT_number       1

loop_
  _space_group_symop_operation_xyz
  'x, y, z'

loop_
  _atom_site_type_symbol
  _atom_site_label
  _atom_site_symmetry_multiplicity
  _atom_site_fract_x
  _atom_site_fract_y
  _atom_site_fract_z
  _atom_site_occupancy
  Mn  Mn1       1.0  0.99999  0.49999  0.49999  1.0000
  H   H1        1.0  0.33329  0.07712  0.73929  1.0000
  H   H2        1.0  0.33329  0.73929  0.07712  1.0000
  H   H3        1.0  0.66673  0.92290  0.26072  1.0000
  H   H4        1.0  0.66673  0.26072  0.92288  1.0000
  C   C1        1.0  0.52670  0.34124  0.34123  1.0000
  C   C2        1.0  0.47328  0.65875  0.65875  1.0000
  C   C3        1.0  0.18396  0.04347  0.85643  1.0000
  C   C4        1.0  0.18393  0.85644  0.04349  1.0000
  C   C5        1.0  0.81607  0.95654  0.14356  1.0000
  C   C6        1.0  0.81610  0.14357  0.95653  1.0000
  S   S1        1.0  0.26904  0.28130  0.28129  1.0000
  S   S2        1.0  0.73091  0.71868  0.71869  1.0000
  N   N1        1.0  0.71396  0.38574  0.38574  1.0000
  N   N2        1.0  0.28601  0.61426  0.61426  1.0000
  N   N3        1.0  0.99999  0.18744  0.81257  1.0000
  N   N4        1.0  0.00002  0.81257  0.18744  1.0000
