data_image0
_chemical_formula_structural       Cu4H16C12S4N12
_chemical_formula_sum              "Cu4 H16 C12 S4 N12"
_cell_length_a       5.05233
_cell_length_b       8.58971
_cell_length_c       11.6596
_cell_angle_alpha    108.631
_cell_angle_beta     89.9995
_cell_angle_gamma    89.9993

_space_group_name_H-M_alt    "P 1"
_space_group_IT_number       1

loop_
  _space_group_symop_operation_xyz
  'x, y, z'

loop_
  _atom_site_type_symbol
  _atom_site_label
  _atom_site_symmetry_multiplicity
  _atom_site_fract_x
  _atom_site_fract_y
  _atom_site_fract_z
  _atom_site_occupancy
  Cu  Cu1       1.0  0.99758  0.33676  0.34348  1.0000
  Cu  Cu2       1.0  0.49758  0.16324  0.15652  1.0000
  Cu  Cu3       1.0  0.00241  0.66324  0.65652  1.0000
  Cu  Cu4       1.0  0.50243  0.83676  0.84348  1.0000
  H   H1        1.0  0.91721  0.61868  0.92654  1.0000
  H   H2        1.0  0.41719  0.88133  0.57347  1.0000
  H   H3        1.0  0.08279  0.38132  0.07346  1.0000
  H   H4        1.0  0.58280  0.11867  0.42653  1.0000
  H   H5        1.0  0.36053  0.61480  0.03865  1.0000
  H   H6        1.0  0.86052  0.88519  0.46136  1.0000
  H   H7        1.0  0.63948  0.38519  0.96136  1.0000
  H   H8        1.0  0.13948  0.11480  0.53864  1.0000
  H   H9        1.0  0.21163  0.63805  0.18308  1.0000
  H   H10       1.0  0.71160  0.86195  0.31692  1.0000
  H   H11       1.0  0.78838  0.36195  0.81692  1.0000
  H   H12       1.0  0.28840  0.13804  0.68308  1.0000
  H   H13       1.0  0.43888  0.78874  0.16616  1.0000
  H   H14       1.0  0.93885  0.71125  0.33383  1.0000
  H   H15       1.0  0.56114  0.21126  0.83384  1.0000
  H   H16       1.0  0.06114  0.28874  0.66617  1.0000
  C   C1        1.0  0.99173  0.95380  0.15230  1.0000
  C   C2        1.0  0.49173  0.54620  0.34769  1.0000
  C   C3        1.0  0.00827  0.04620  0.84769  1.0000
  C   C4        1.0  0.50827  0.45380  0.65231  1.0000
  C   C5        1.0  0.89999  0.73756  0.99553  1.0000
  C   C6        1.0  0.39997  0.76242  0.50446  1.0000
  C   C7        1.0  0.10001  0.26244  0.00447  1.0000
  C   C8        1.0  0.60002  0.23758  0.49554  1.0000
  C   C9        1.0  0.28253  0.70286  0.12166  1.0000
  C   C10       1.0  0.78251  0.79714  0.37834  1.0000
  C   C11       1.0  0.71748  0.29714  0.87834  1.0000
  C   C12       1.0  0.21748  0.20286  0.62166  1.0000
  S   S1        1.0  0.17060  0.08232  0.27100  1.0000
  S   S2        1.0  0.67058  0.41767  0.22900  1.0000
  S   S3        1.0  0.82942  0.91768  0.72900  1.0000
  S   S4        1.0  0.32941  0.58233  0.77100  1.0000
  N   N1        1.0  0.72177  0.84996  0.99714  1.0000
  N   N2        1.0  0.22176  0.65004  0.50286  1.0000
  N   N3        1.0  0.27824  0.15004  0.00286  1.0000
  N   N4        1.0  0.77824  0.34996  0.49714  1.0000
  N   N5        1.0  0.77465  0.98648  0.09732  1.0000
  N   N6        1.0  0.27464  0.51352  0.40268  1.0000
  N   N7        1.0  0.22536  0.01352  0.90268  1.0000
  N   N8        1.0  0.72536  0.48648  0.59732  1.0000
  N   N9        1.0  0.06949  0.79455  0.09024  1.0000
  N   N10       1.0  0.56946  0.70545  0.40977  1.0000
  N   N11       1.0  0.93052  0.20545  0.90976  1.0000
  N   N12       1.0  0.43054  0.29455  0.59023  1.0000
