data_image0
_chemical_formula_structural       Cu4H20C12S4I4N12
_chemical_formula_sum              "Cu4 H20 C12 S4 I4 N12"
_cell_length_a       5.6597
_cell_length_b       9.98871
_cell_length_c       13.0793
_cell_angle_alpha    90.0006
_cell_angle_beta     89.9998
_cell_angle_gamma    96.3539

_space_group_name_H-M_alt    "P 1"
_space_group_IT_number       1

loop_
  _space_group_symop_operation_xyz
  'x, y, z'

loop_
  _atom_site_type_symbol
  _atom_site_label
  _atom_site_symmetry_multiplicity
  _atom_site_fract_x
  _atom_site_fract_y
  _atom_site_fract_z
  _atom_site_occupancy
  Cu  Cu1       1.0  0.75871  0.98702  0.50135  1.0000
  Cu  Cu2       1.0  0.74130  0.51297  0.00135  1.0000
  Cu  Cu3       1.0  0.24130  0.01298  0.49866  1.0000
  Cu  Cu4       1.0  0.25870  0.48703  0.99865  1.0000
  H   H1        1.0  0.39492  0.34279  0.48486  1.0000
  H   H2        1.0  0.10509  0.15720  0.98485  1.0000
  H   H3        1.0  0.60507  0.65721  0.51515  1.0000
  H   H4        1.0  0.89492  0.84279  0.01515  1.0000
  H   H5        1.0  0.00232  0.50910  0.34334  1.0000
  H   H6        1.0  0.49769  0.99090  0.84333  1.0000
  H   H7        1.0  0.99766  0.49092  0.65666  1.0000
  H   H8        1.0  0.50230  0.00909  0.15666  1.0000
  H   H9        1.0  0.01029  0.13772  0.31268  1.0000
  H   H10       1.0  0.48970  0.36228  0.81269  1.0000
  H   H11       1.0  0.98973  0.86230  0.68732  1.0000
  H   H12       1.0  0.51030  0.63772  0.18731  1.0000
  H   H13       1.0  0.15890  0.29723  0.27268  1.0000
  H   H14       1.0  0.34110  0.20277  0.77269  1.0000
  H   H15       1.0  0.84110  0.70279  0.72732  1.0000
  H   H16       1.0  0.65890  0.79722  0.22731  1.0000
  H   H17       1.0  0.91305  0.22044  0.20035  1.0000
  H   H18       1.0  0.58693  0.27957  0.70036  1.0000
  H   H19       1.0  0.08694  0.77957  0.79964  1.0000
  H   H20       1.0  0.41308  0.72044  0.29965  1.0000
  C   C1        1.0  0.62329  0.24572  0.38517  1.0000
  C   C2        1.0  0.87671  0.25428  0.88517  1.0000
  C   C3        1.0  0.37671  0.75429  0.61483  1.0000
  C   C4        1.0  0.12330  0.74571  0.11483  1.0000
  C   C5        1.0  0.85608  0.43744  0.36855  1.0000
  C   C6        1.0  0.64392  0.06255  0.86855  1.0000
  C   C7        1.0  0.14389  0.56256  0.63145  1.0000
  C   C8        1.0  0.35610  0.93744  0.13146  1.0000
  C   C9        1.0  0.98742  0.23527  0.27761  1.0000
  C   C10       1.0  0.51258  0.26473  0.77762  1.0000
  C   C11       1.0  0.01259  0.76474  0.72239  1.0000
  C   C12       1.0  0.48743  0.73527  0.22239  1.0000
  S   S1        1.0  0.51684  0.08048  0.37508  1.0000
  S   S2        1.0  0.98316  0.41952  0.87508  1.0000
  S   S3        1.0  0.48317  0.91953  0.62492  1.0000
  S   S4        1.0  0.01685  0.58047  0.12492  1.0000
  I   I1        1.0  0.01619  0.19114  0.59132  1.0000
  I   I2        1.0  0.48380  0.30886  0.09132  1.0000
  I   I3        1.0  0.98381  0.80886  0.40867  1.0000
  I   I4        1.0  0.51620  0.69113  0.90867  1.0000
  N   N1        1.0  0.68190  0.46669  0.42780  1.0000
  N   N2        1.0  0.81811  0.03330  0.92779  1.0000
  N   N3        1.0  0.31810  0.53332  0.57220  1.0000
  N   N4        1.0  0.18189  0.96668  0.07221  1.0000
  N   N5        1.0  0.53924  0.34750  0.43692  1.0000
  N   N6        1.0  0.96076  0.15250  0.93691  1.0000
  N   N7        1.0  0.46078  0.65250  0.56308  1.0000
  N   N8        1.0  0.03920  0.84750  0.06308  1.0000
  N   N9        1.0  0.82865  0.30472  0.34066  1.0000
  N   N10       1.0  0.67134  0.19528  0.84066  1.0000
  N   N11       1.0  0.17134  0.69529  0.65934  1.0000
  N   N12       1.0  0.32867  0.80472  0.15934  1.0000
