data_image0
_chemical_formula_structural       H28Pb2C48N8Cl4O8
_chemical_formula_sum              "H28 Pb2 C48 N8 Cl4 O8"
_cell_length_a       7.50917
_cell_length_b       11.9493
_cell_length_c       13.9257
_cell_angle_alpha    105.732
_cell_angle_beta     97.6299
_cell_angle_gamma    102.417

_space_group_name_H-M_alt    "P 1"
_space_group_IT_number       1

loop_
  _space_group_symop_operation_xyz
  'x, y, z'

loop_
  _atom_site_type_symbol
  _atom_site_label
  _atom_site_symmetry_multiplicity
  _atom_site_fract_x
  _atom_site_fract_y
  _atom_site_fract_z
  _atom_site_occupancy
  H   H1        1.0  0.50805  0.01457  0.11717  1.0000
  H   H2        1.0  0.49196  0.98544  0.88284  1.0000
  H   H3        1.0  0.59439  0.13731  0.00377  1.0000
  H   H4        1.0  0.40562  0.86271  0.99625  1.0000
  H   H5        1.0  0.47683  0.43403  0.21873  1.0000
  H   H6        1.0  0.52318  0.56599  0.78128  1.0000
  H   H7        1.0  0.94181  0.18385  0.26433  1.0000
  H   H8        1.0  0.05820  0.81615  0.73566  1.0000
  H   H9        1.0  0.03034  0.09792  0.96758  1.0000
  H   H10       1.0  0.96963  0.90209  0.03240  1.0000
  H   H11       1.0  0.03593  0.46562  0.12563  1.0000
  H   H12       1.0  0.96398  0.53437  0.87436  1.0000
  H   H13       1.0  0.34735  0.59117  0.33651  1.0000
  H   H14       1.0  0.65265  0.40881  0.66346  1.0000
  H   H15       1.0  0.20515  0.69292  0.22300  1.0000
  H   H16       1.0  0.79487  0.30709  0.77699  1.0000
  H   H17       1.0  0.41506  0.85045  0.17193  1.0000
  H   H18       1.0  0.58497  0.14955  0.82806  1.0000
  H   H19       1.0  0.74589  0.96665  0.17928  1.0000
  H   H20       1.0  0.25414  0.03337  0.82074  1.0000
  H   H21       1.0  0.07600  0.03853  0.26948  1.0000
  H   H22       1.0  0.92404  0.96147  0.73052  1.0000
  H   H23       1.0  0.31069  0.05300  0.41579  1.0000
  H   H24       1.0  0.68934  0.94697  0.58421  1.0000
  H   H25       1.0  0.41325  0.96412  0.55428  1.0000
  H   H26       1.0  0.58676  0.03583  0.44571  1.0000
  H   H27       1.0  0.19600  0.78252  0.57012  1.0000
  H   H28       1.0  0.80398  0.21744  0.42986  1.0000
  Pb  Pb1       1.0  0.77787  0.58185  0.46408  1.0000
  Pb  Pb2       1.0  0.22209  0.41817  0.53592  1.0000
  C   C1        1.0  0.38565  0.31753  0.35192  1.0000
  C   C2        1.0  0.61433  0.68248  0.64809  1.0000
  C   C3        1.0  0.44208  0.26550  0.25240  1.0000
  C   C4        1.0  0.55796  0.73453  0.74763  1.0000
  C   C5        1.0  0.49980  0.10788  0.13747  1.0000
  C   C6        1.0  0.50024  0.89215  0.86254  1.0000
  C   C7        1.0  0.54600  0.17528  0.07245  1.0000
  C   C8        1.0  0.45403  0.82475  0.92756  1.0000
  C   C9        1.0  0.53610  0.29448  0.10109  1.0000
  C   C10       1.0  0.46391  0.70552  0.89892  1.0000
  C   C11       1.0  0.48416  0.34110  0.19279  1.0000
  C   C12       1.0  0.51587  0.65892  0.80724  1.0000
  C   C13       1.0  0.95782  0.42123  0.30167  1.0000
  C   C14       1.0  0.04220  0.57877  0.69834  1.0000
  C   C15       1.0  0.98778  0.33522  0.20710  1.0000
  C   C16       1.0  0.01221  0.66479  0.79289  1.0000
  C   C17       1.0  0.97061  0.21401  0.19947  1.0000
  C   C18       1.0  0.02938  0.78598  0.80051  1.0000
  C   C19       1.0  0.01945  0.16668  0.03521  1.0000
  C   C20       1.0  0.98051  0.83333  0.96476  1.0000
  C   C21       1.0  0.04026  0.28656  0.03667  1.0000
  C   C22       1.0  0.95971  0.71344  0.96331  1.0000
  C   C23       1.0  0.02410  0.37241  0.12316  1.0000
  C   C24       1.0  0.97585  0.62759  0.87684  1.0000
  C   C25       1.0  0.43369  0.66360  0.31615  1.0000
  C   C26       1.0  0.56630  0.33641  0.68384  1.0000
  C   C27       1.0  0.35519  0.71967  0.25108  1.0000
  C   C28       1.0  0.64482  0.28034  0.74891  1.0000
  C   C29       1.0  0.47167  0.80660  0.22344  1.0000
  C   C30       1.0  0.52834  0.19341  0.77656  1.0000
  C   C31       1.0  0.66520  0.84084  0.26359  1.0000
  C   C32       1.0  0.33481  0.15917  0.73641  1.0000
  C   C33       1.0  0.73070  0.78410  0.33375  1.0000
  C   C34       1.0  0.26930  0.21590  0.66626  1.0000
  C   C35       1.0  0.79462  0.92991  0.23833  1.0000
  C   C36       1.0  0.20540  0.07010  0.76168  1.0000
  C   C37       1.0  0.97690  0.96982  0.28747  1.0000
  C   C38       1.0  0.02312  0.03018  0.71253  1.0000
  C   C39       1.0  0.04264  0.92378  0.36606  1.0000
  C   C40       1.0  0.95737  0.07621  0.63394  1.0000
  C   C41       1.0  0.92346  0.82703  0.38645  1.0000
  C   C42       1.0  0.07654  0.17297  0.61356  1.0000
  C   C43       1.0  0.22296  0.97429  0.42776  1.0000
  C   C44       1.0  0.77705  0.02568  0.57224  1.0000
  C   C45       1.0  0.27818  0.92605  0.50279  1.0000
  C   C46       1.0  0.72182  0.07392  0.49721  1.0000
  C   C47       1.0  0.15569  0.82554  0.51378  1.0000
  C   C48       1.0  0.84429  0.17443  0.48622  1.0000
  N   N1        1.0  0.44796  0.14965  0.22562  1.0000
  N   N2        1.0  0.55211  0.85037  0.77441  1.0000
  N   N3        1.0  0.98495  0.13110  0.11596  1.0000
  N   N4        1.0  0.01501  0.86889  0.88402  1.0000
  N   N5        1.0  0.61529  0.69462  0.35585  1.0000
  N   N6        1.0  0.38471  0.30538  0.64415  1.0000
  N   N7        1.0  0.98408  0.77833  0.45780  1.0000
  N   N8        1.0  0.01589  0.22168  0.54220  1.0000
  Cl  Cl1       1.0  0.59116  0.38475  0.02610  1.0000
  Cl  Cl2       1.0  0.40872  0.61523  0.97388  1.0000
  Cl  Cl3       1.0  0.08435  0.32724  0.92999  1.0000
  Cl  Cl4       1.0  0.91571  0.67278  0.07002  1.0000
  O   O1        1.0  0.41697  0.43253  0.38341  1.0000
  O   O2        1.0  0.58290  0.56747  0.61657  1.0000
  O   O3        1.0  0.30901  0.24745  0.39692  1.0000
  O   O4        1.0  0.69101  0.75256  0.60308  1.0000
  O   O5        1.0  0.94645  0.52451  0.29867  1.0000
  O   O6        1.0  0.05355  0.47548  0.70136  1.0000
  O   O7        1.0  0.93998  0.38217  0.37807  1.0000
  O   O8        1.0  0.06011  0.61782  0.62195  1.0000
