data_image0
_chemical_formula_structural       Ag2H8C24N6O4F16
_chemical_formula_sum              "Ag2 H8 C24 N6 O4 F16"
_cell_length_a       6.40147
_cell_length_b       7.89912
_cell_length_c       13.9146
_cell_angle_alpha    84.9177
_cell_angle_beta     85.4034
_cell_angle_gamma    84.2493

_space_group_name_H-M_alt    "P 1"
_space_group_IT_number       1

loop_
  _space_group_symop_operation_xyz
  'x, y, z'

loop_
  _atom_site_type_symbol
  _atom_site_label
  _atom_site_symmetry_multiplicity
  _atom_site_fract_x
  _atom_site_fract_y
  _atom_site_fract_z
  _atom_site_occupancy
  Ag  Ag1       1.0  0.04783  0.17868  0.03627  1.0000
  Ag  Ag2       1.0  0.95217  0.82132  0.96372  1.0000
  H   H1        1.0  0.68670  0.28400  0.93592  1.0000
  H   H2        1.0  0.31330  0.71600  0.06408  1.0000
  H   H3        1.0  0.41201  0.33790  0.95251  1.0000
  H   H4        1.0  0.58799  0.66209  0.04749  1.0000
  H   H5        1.0  0.86567  0.93761  0.19843  1.0000
  H   H6        1.0  0.13433  0.06240  0.80157  1.0000
  H   H7        1.0  0.19748  0.07216  0.23689  1.0000
  H   H8        1.0  0.80252  0.92783  0.76311  1.0000
  C   C1        1.0  0.54101  0.17089  0.05731  1.0000
  C   C2        1.0  0.45899  0.82910  0.94270  1.0000
  C   C3        1.0  0.71797  0.00549  0.17706  1.0000
  C   C4        1.0  0.28203  0.99451  0.82294  1.0000
  C   C5        1.0  0.53230  0.99440  0.23655  1.0000
  C   C6        1.0  0.46770  0.00560  0.76345  1.0000
  C   C7        1.0  0.34997  0.07344  0.19636  1.0000
  C   C8        1.0  0.65003  0.92655  0.80364  1.0000
  C   C9        1.0  0.52744  0.90148  0.33300  1.0000
  C   C10       1.0  0.47255  0.09851  0.66700  1.0000
  C   C11       1.0  0.68412  0.90770  0.39729  1.0000
  C   C12       1.0  0.31587  0.09229  0.60270  1.0000
  C   C13       1.0  0.67732  0.82192  0.48918  1.0000
  C   C14       1.0  0.32267  0.17807  0.51081  1.0000
  C   C15       1.0  0.50958  0.72587  0.52003  1.0000
  C   C16       1.0  0.49041  0.27413  0.47997  1.0000
  C   C17       1.0  0.35211  0.71456  0.45782  1.0000
  C   C18       1.0  0.64789  0.28544  0.54218  1.0000
  C   C19       1.0  0.36321  0.80138  0.36631  1.0000
  C   C20       1.0  0.63678  0.19862  0.63369  1.0000
  C   C21       1.0  0.06720  0.43599  0.86099  1.0000
  C   C22       1.0  0.93280  0.56403  0.13902  1.0000
  C   C23       1.0  0.02367  0.53065  0.76032  1.0000
  C   C24       1.0  0.97635  0.46936  0.23969  1.0000
  N   N1        1.0  0.35051  0.15365  0.10767  1.0000
  N   N2        1.0  0.64949  0.84634  0.89233  1.0000
  N   N3        1.0  0.54469  0.26124  0.97180  1.0000
  N   N4        1.0  0.45531  0.73876  0.02820  1.0000
  N   N5        1.0  0.72534  0.09474  0.09080  1.0000
  N   N6        1.0  0.27466  0.90527  0.90920  1.0000
  O   O1        1.0  0.96337  0.30723  0.88249  1.0000
  O   O2        1.0  0.03660  0.69279  0.11751  1.0000
  O   O3        1.0  0.20235  0.49090  0.90718  1.0000
  O   O4        1.0  0.79765  0.50909  0.09282  1.0000
  F   F1        1.0  0.84539  0.00515  0.37228  1.0000
  F   F2        1.0  0.15461  0.99484  0.62771  1.0000
  F   F3        1.0  0.82749  0.83599  0.54978  1.0000
  F   F4        1.0  0.17251  0.16401  0.45022  1.0000
  F   F5        1.0  0.49885  0.64644  0.60955  1.0000
  F   F6        1.0  0.50115  0.35356  0.39045  1.0000
  F   F7        1.0  0.19243  0.61861  0.48589  1.0000
  F   F8        1.0  0.80757  0.38139  0.51412  1.0000
  F   F9        1.0  0.20933  0.78497  0.30776  1.0000
  F   F10       1.0  0.79065  0.21504  0.69225  1.0000
  F   F11       1.0  0.09512  0.68865  0.74846  1.0000
  F   F12       1.0  0.90493  0.31135  0.25154  1.0000
  F   F13       1.0  0.12512  0.43844  0.68893  1.0000
  F   F14       1.0  0.87487  0.56156  0.31108  1.0000
  F   F15       1.0  0.81528  0.55169  0.74494  1.0000
  F   F16       1.0  0.18474  0.44835  0.25505  1.0000
