data_image0
_chemical_formula_structural       MnH24C28N14O4
_chemical_formula_sum              "Mn1 H24 C28 N14 O4"
_cell_length_a       7.30746
_cell_length_b       7.56579
_cell_length_c       14.3218
_cell_angle_alpha    100.255
_cell_angle_beta     93.226
_cell_angle_gamma    115.72

_space_group_name_H-M_alt    "P 1"
_space_group_IT_number       1

loop_
  _space_group_symop_operation_xyz
  'x, y, z'

loop_
  _atom_site_type_symbol
  _atom_site_label
  _atom_site_symmetry_multiplicity
  _atom_site_fract_x
  _atom_site_fract_y
  _atom_site_fract_z
  _atom_site_occupancy
  Mn  Mn1       1.0  1.00000  1.00000  0.00003  1.0000
  H   H1        1.0  0.17651  0.49963  0.33856  1.0000
  H   H2        1.0  0.82350  0.50037  0.66144  1.0000
  H   H3        1.0  0.08592  0.56297  0.44377  1.0000
  H   H4        1.0  0.91408  0.43703  0.55622  1.0000
  H   H5        1.0  0.05287  0.27378  0.20587  1.0000
  H   H6        1.0  0.94713  0.72622  0.79412  1.0000
  H   H7        1.0  0.89728  0.88100  0.40470  1.0000
  H   H8        1.0  0.10273  0.11900  0.59530  1.0000
  H   H9        1.0  0.85796  0.60185  0.26926  1.0000
  H   H10       1.0  0.14204  0.39815  0.73074  1.0000
  H   H11       1.0  0.92149  0.67831  0.10710  1.0000
  H   H12       1.0  0.07850  0.32168  0.89290  1.0000
  H   H13       1.0  0.59390  0.64911  0.46568  1.0000
  H   H14       1.0  0.40610  0.35089  0.53432  1.0000
  H   H15       1.0  0.68994  0.91402  0.50268  1.0000
  H   H16       1.0  0.31007  0.08598  0.49731  1.0000
  H   H17       1.0  0.68730  0.15148  0.58407  1.0000
  H   H18       1.0  0.31271  0.84853  0.41593  1.0000
  H   H19       1.0  0.40945  0.75013  0.76892  1.0000
  H   H20       1.0  0.59055  0.24987  0.23108  1.0000
  H   H21       1.0  0.44060  0.05130  0.89046  1.0000
  H   H22       1.0  0.55940  0.94870  0.10953  1.0000
  H   H23       1.0  0.60569  0.39136  0.85166  1.0000
  H   H24       1.0  0.39432  0.60863  0.14834  1.0000
  C   C1        1.0  0.46648  0.26848  0.04327  1.0000
  C   C2        1.0  0.53351  0.73153  0.95674  1.0000
  C   C3        1.0  0.77624  0.26272  0.03876  1.0000
  C   C4        1.0  0.22376  0.73727  0.96125  1.0000
  C   C5        1.0  0.01259  0.12887  0.22416  1.0000
  C   C6        1.0  0.98742  0.87113  0.77583  1.0000
  C   C7        1.0  0.97782  0.09940  0.31663  1.0000
  C   C8        1.0  0.02218  0.90060  0.68337  1.0000
  C   C9        1.0  0.92159  0.90712  0.33320  1.0000
  C   C10       1.0  0.07842  0.09289  0.66679  1.0000
  C   C11       1.0  0.90234  0.75293  0.25829  1.0000
  C   C12       1.0  0.09767  0.24708  0.74171  1.0000
  C   C13       1.0  0.93855  0.79419  0.16850  1.0000
  C   C14       1.0  0.06144  0.20580  0.83150  1.0000
  C   C15       1.0  0.98557  0.26007  0.39718  1.0000
  C   C16       1.0  0.01444  0.73993  0.60282  1.0000
  C   C17       1.0  0.63163  0.12209  0.65151  1.0000
  C   C18       1.0  0.36837  0.87791  0.34849  1.0000
  C   C19       1.0  0.54523  0.92673  0.66712  1.0000
  C   C20       1.0  0.45477  0.07327  0.33288  1.0000
  C   C21       1.0  0.47709  0.90089  0.75514  1.0000
  C   C22       1.0  0.52291  0.09911  0.24485  1.0000
  C   C23       1.0  0.49679  0.06767  0.82228  1.0000
  C   C24       1.0  0.50321  0.93233  0.17772  1.0000
  C   C25       1.0  0.58599  0.25673  0.80026  1.0000
  C   C26       1.0  0.41402  0.74327  0.19974  1.0000
  C   C27       1.0  0.52207  0.74554  0.59512  1.0000
  C   C28       1.0  0.47793  0.25446  0.40487  1.0000
  N   N1        1.0  0.28545  0.20078  0.03217  1.0000
  N   N2        1.0  0.71454  0.79922  0.96786  1.0000
  N   N3        1.0  0.66575  0.35621  0.05792  1.0000
  N   N4        1.0  0.33424  0.64380  0.94208  1.0000
  N   N5        1.0  0.89258  0.19372  0.02530  1.0000
  N   N6        1.0  0.10740  0.80628  0.97473  1.0000
  N   N7        1.0  0.99085  0.97819  0.15135  1.0000
  N   N8        1.0  0.00914  0.02180  0.84864  1.0000
  N   N9        1.0  0.08529  0.45125  0.39040  1.0000
  N   N10       1.0  0.91472  0.54875  0.60960  1.0000
  N   N11       1.0  0.65300  0.28422  0.71613  1.0000
  N   N12       1.0  0.34700  0.71578  0.28387  1.0000
  N   N13       1.0  0.60725  0.77427  0.51498  1.0000
  N   N14       1.0  0.39275  0.22573  0.48502  1.0000
  O   O1        1.0  0.89448  0.20955  0.46749  1.0000
  O   O2        1.0  0.10552  0.79045  0.53250  1.0000
  O   O3        1.0  0.42595  0.57407  0.61197  1.0000
  O   O4        1.0  0.57405  0.42593  0.38803  1.0000
