data_image0
_chemical_formula_structural       Zn2H28C36N8Cl4O4
_chemical_formula_sum              "Zn2 H28 C36 N8 Cl4 O4"
_cell_length_a       8.61232
_cell_length_b       9.4887
_cell_length_c       13.5028
_cell_angle_alpha    73.759
_cell_angle_beta     72.797
_cell_angle_gamma    66.5608

_space_group_name_H-M_alt    "P 1"
_space_group_IT_number       1

loop_
  _space_group_symop_operation_xyz
  'x, y, z'

loop_
  _atom_site_type_symbol
  _atom_site_label
  _atom_site_symmetry_multiplicity
  _atom_site_fract_x
  _atom_site_fract_y
  _atom_site_fract_z
  _atom_site_occupancy
  Zn  Zn1       1.0  0.48829  0.44785  0.26529  1.0000
  Zn  Zn2       1.0  0.51171  0.55215  0.73471  1.0000
  H   H1        1.0  0.81052  0.43441  0.10385  1.0000
  H   H2        1.0  0.18948  0.56559  0.89615  1.0000
  H   H3        1.0  0.12176  0.38229  0.09971  1.0000
  H   H4        1.0  0.87824  0.61771  0.90029  1.0000
  H   H5        1.0  0.21869  0.30457  0.27003  1.0000
  H   H6        1.0  0.78131  0.69543  0.72997  1.0000
  H   H7        1.0  0.69173  0.34468  0.43160  1.0000
  H   H8        1.0  0.30827  0.65532  0.56840  1.0000
  H   H9        1.0  0.12842  0.29107  0.45760  1.0000
  H   H10       1.0  0.87158  0.70893  0.54240  1.0000
  H   H11       1.0  0.05209  0.38721  0.60813  1.0000
  H   H12       1.0  0.94790  0.61279  0.39187  1.0000
  H   H13       1.0  0.14637  0.34495  0.77492  1.0000
  H   H14       1.0  0.85363  0.65505  0.22508  1.0000
  H   H15       1.0  0.09383  0.89071  0.86732  1.0000
  H   H16       1.0  0.90618  0.10928  0.13267  1.0000
  H   H17       1.0  0.99250  0.93674  0.70390  1.0000
  H   H18       1.0  0.00750  0.06325  0.29610  1.0000
  H   H19       1.0  0.29496  0.86393  0.93634  1.0000
  H   H20       1.0  0.70504  0.13607  0.06367  1.0000
  H   H21       1.0  0.32573  0.12255  0.08528  1.0000
  H   H22       1.0  0.67428  0.87745  0.91472  1.0000
  H   H23       1.0  0.43559  0.00823  0.25295  1.0000
  H   H24       1.0  0.56441  0.99177  0.74705  1.0000
  H   H25       1.0  0.49092  0.72416  0.32863  1.0000
  H   H26       1.0  0.50908  0.27584  0.67137  1.0000
  H   H27       1.0  0.34334  0.66243  0.08189  1.0000
  H   H28       1.0  0.65666  0.33758  0.91811  1.0000
  C   C1        1.0  0.85873  0.40155  0.17603  1.0000
  C   C2        1.0  0.14126  0.59845  0.82397  1.0000
  C   C3        1.0  0.03068  0.37249  0.17454  1.0000
  C   C4        1.0  0.96931  0.62751  0.82546  1.0000
  C   C5        1.0  0.08406  0.32897  0.26966  1.0000
  C   C6        1.0  0.91594  0.67103  0.73034  1.0000
  C   C7        1.0  0.96403  0.31581  0.36482  1.0000
  C   C8        1.0  0.03597  0.68419  0.63518  1.0000
  C   C9        1.0  0.79154  0.35028  0.36055  1.0000
  C   C10       1.0  0.20846  0.64972  0.63945  1.0000
  C   C11       1.0  0.94925  0.18632  0.55042  1.0000
  C   C12       1.0  0.05074  0.81368  0.44958  1.0000
  C   C13       1.0  0.02033  0.16191  0.64464  1.0000
  C   C14       1.0  0.97966  0.83809  0.35536  1.0000
  C   C15       1.0  0.06413  0.27759  0.66416  1.0000
  C   C16       1.0  0.93586  0.72241  0.33584  1.0000
  C   C17       1.0  0.11686  0.25471  0.75700  1.0000
  C   C18       1.0  0.88314  0.74529  0.24299  1.0000
  C   C19       1.0  0.13117  0.11497  0.83046  1.0000
  C   C20       1.0  0.86882  0.88503  0.16954  1.0000
  C   C21       1.0  0.08945  0.99848  0.81012  1.0000
  C   C22       1.0  0.91056  0.00152  0.18988  1.0000
  C   C23       1.0  0.03199  0.02319  0.71864  1.0000
  C   C24       1.0  0.96801  0.97681  0.28136  1.0000
  C   C25       1.0  0.18243  0.10142  0.93018  1.0000
  C   C26       1.0  0.81758  0.89858  0.06982  1.0000
  C   C27       1.0  0.32275  0.90230  0.07110  1.0000
  C   C28       1.0  0.67725  0.09770  0.92890  1.0000
  C   C29       1.0  0.35177  0.99968  0.11989  1.0000
  C   C30       1.0  0.64824  0.00032  0.88011  1.0000
  C   C31       1.0  0.41290  0.93547  0.21293  1.0000
  C   C32       1.0  0.58710  0.06453  0.78707  1.0000
  C   C33       1.0  0.44559  0.77758  0.25509  1.0000
  C   C34       1.0  0.55440  0.22242  0.74492  1.0000
  C   C35       1.0  0.36017  0.74388  0.11769  1.0000
  C   C36       1.0  0.63984  0.25612  0.88232  1.0000
  N   N1        1.0  0.74270  0.39145  0.26779  1.0000
  N   N2        1.0  0.25730  0.60855  0.73221  1.0000
  N   N3        1.0  0.01734  0.27270  0.46016  1.0000
  N   N4        1.0  0.98266  0.72729  0.53984  1.0000
  N   N5        1.0  0.26165  0.95096  0.97778  1.0000
  N   N6        1.0  0.73835  0.04904  0.02222  1.0000
  N   N7        1.0  0.42070  0.68389  0.20690  1.0000
  N   N8        1.0  0.57930  0.31612  0.79310  1.0000
  Cl  Cl1       1.0  0.48762  0.33986  0.13632  1.0000
  Cl  Cl2       1.0  0.51238  0.66014  0.86368  1.0000
  Cl  Cl3       1.0  0.34157  0.39724  0.42975  1.0000
  Cl  Cl4       1.0  0.65842  0.60277  0.57025  1.0000
  O   O1        1.0  0.83728  0.13335  0.55422  1.0000
  O   O2        1.0  0.16272  0.86665  0.44578  1.0000
  O   O3        1.0  0.15318  0.21823  0.96639  1.0000
  O   O4        1.0  0.84683  0.78178  0.03361  1.0000
