data_image0
_chemical_formula_structural       Zn2H28C36Br4N8O4
_chemical_formula_sum              "Zn2 H28 C36 Br4 N8 O4"
_cell_length_a       8.74821
_cell_length_b       9.54574
_cell_length_c       13.6055
_cell_angle_alpha    73.2308
_cell_angle_beta     73.9134
_cell_angle_gamma    66.6251

_space_group_name_H-M_alt    "P 1"
_space_group_IT_number       1

loop_
  _space_group_symop_operation_xyz
  'x, y, z'

loop_
  _atom_site_type_symbol
  _atom_site_label
  _atom_site_symmetry_multiplicity
  _atom_site_fract_x
  _atom_site_fract_y
  _atom_site_fract_z
  _atom_site_occupancy
  Zn  Zn1       1.0  0.48923  0.45128  0.26853  1.0000
  Zn  Zn2       1.0  0.51077  0.54872  0.73147  1.0000
  H   H1        1.0  0.80332  0.43838  0.10936  1.0000
  H   H2        1.0  0.19667  0.56162  0.89064  1.0000
  H   H3        1.0  0.11040  0.38005  0.10773  1.0000
  H   H4        1.0  0.88960  0.61995  0.89227  1.0000
  H   H5        1.0  0.20937  0.29744  0.27781  1.0000
  H   H6        1.0  0.79063  0.70256  0.72219  1.0000
  H   H7        1.0  0.69409  0.34010  0.43379  1.0000
  H   H8        1.0  0.30591  0.65990  0.56621  1.0000
  H   H9        1.0  0.12236  0.28304  0.46418  1.0000
  H   H10       1.0  0.87764  0.71696  0.53582  1.0000
  H   H11       1.0  0.04050  0.38667  0.61084  1.0000
  H   H12       1.0  0.95950  0.61333  0.38915  1.0000
  H   H13       1.0  0.13670  0.34745  0.77599  1.0000
  H   H14       1.0  0.86330  0.65255  0.22401  1.0000
  H   H15       1.0  0.09135  0.89201  0.87347  1.0000
  H   H16       1.0  0.90865  0.10799  0.12653  1.0000
  H   H17       1.0  0.98986  0.93451  0.71140  1.0000
  H   H18       1.0  0.01014  0.06549  0.28860  1.0000
  H   H19       1.0  0.28699  0.86830  0.94193  1.0000
  H   H20       1.0  0.71301  0.13169  0.05807  1.0000
  H   H21       1.0  0.32807  0.12517  0.08487  1.0000
  H   H22       1.0  0.67192  0.87484  0.91513  1.0000
  H   H23       1.0  0.44315  0.00971  0.25073  1.0000
  H   H24       1.0  0.55685  0.99029  0.74927  1.0000
  H   H25       1.0  0.49909  0.72582  0.32833  1.0000
  H   H26       1.0  0.50092  0.27418  0.67168  1.0000
  H   H27       1.0  0.33870  0.66767  0.08728  1.0000
  H   H28       1.0  0.66130  0.33233  0.91272  1.0000
  C   C1        1.0  0.85276  0.40189  0.18139  1.0000
  C   C2        1.0  0.14724  0.59812  0.81861  1.0000
  C   C3        1.0  0.02220  0.36971  0.18135  1.0000
  C   C4        1.0  0.97779  0.63029  0.81865  1.0000
  C   C5        1.0  0.07682  0.32342  0.27628  1.0000
  C   C6        1.0  0.92318  0.67658  0.72372  1.0000
  C   C7        1.0  0.96049  0.30983  0.36978  1.0000
  C   C8        1.0  0.03951  0.69017  0.63022  1.0000
  C   C9        1.0  0.79083  0.34624  0.36404  1.0000
  C   C10       1.0  0.20916  0.65376  0.63596  1.0000
  C   C11       1.0  0.94530  0.18156  0.55514  1.0000
  C   C12       1.0  0.05470  0.81844  0.44486  1.0000
  C   C13       1.0  0.01400  0.16002  0.64956  1.0000
  C   C14       1.0  0.98600  0.83997  0.35044  1.0000
  C   C15       1.0  0.05497  0.27730  0.66759  1.0000
  C   C16       1.0  0.94504  0.72270  0.33240  1.0000
  C   C17       1.0  0.10834  0.25623  0.75967  1.0000
  C   C18       1.0  0.89166  0.74377  0.24033  1.0000
  C   C19       1.0  0.12534  0.11707  0.83411  1.0000
  C   C20       1.0  0.87466  0.88292  0.16589  1.0000
  C   C21       1.0  0.08498  0.99955  0.81566  1.0000
  C   C22       1.0  0.91502  0.00045  0.18434  1.0000
  C   C23       1.0  0.02747  0.02221  0.72477  1.0000
  C   C24       1.0  0.97253  0.97778  0.27523  1.0000
  C   C25       1.0  0.17943  0.10489  0.93221  1.0000
  C   C26       1.0  0.82057  0.89511  0.06778  1.0000
  C   C27       1.0  0.32170  0.90619  0.07358  1.0000
  C   C28       1.0  0.67830  0.09381  0.92642  1.0000
  C   C29       1.0  0.35380  0.00255  0.12031  1.0000
  C   C30       1.0  0.64620  0.99745  0.87969  1.0000
  C   C31       1.0  0.41805  0.93755  0.21240  1.0000
  C   C32       1.0  0.58196  0.06246  0.78760  1.0000
  C   C33       1.0  0.45090  0.77994  0.25559  1.0000
  C   C34       1.0  0.54910  0.22007  0.74441  1.0000
  C   C35       1.0  0.35883  0.74819  0.12123  1.0000
  C   C36       1.0  0.64117  0.25181  0.87877  1.0000
  Br  Br1       1.0  0.47875  0.33995  0.13481  1.0000
  Br  Br2       1.0  0.52124  0.66005  0.86519  1.0000
  Br  Br3       1.0  0.34373  0.39396  0.44204  1.0000
  Br  Br4       1.0  0.65627  0.60603  0.55796  1.0000
  N   N1        1.0  0.74049  0.39098  0.27165  1.0000
  N   N2        1.0  0.25950  0.60902  0.72835  1.0000
  N   N3        1.0  0.01337  0.26554  0.46521  1.0000
  N   N4        1.0  0.98663  0.73446  0.53479  1.0000
  N   N5        1.0  0.25773  0.95502  0.98138  1.0000
  N   N6        1.0  0.74227  0.04497  0.01862  1.0000
  N   N7        1.0  0.42274  0.68731  0.20931  1.0000
  N   N8        1.0  0.57726  0.31269  0.79070  1.0000
  O   O1        1.0  0.83565  0.12849  0.55849  1.0000
  O   O2        1.0  0.16434  0.87151  0.44151  1.0000
  O   O3        1.0  0.15360  0.22165  0.96582  1.0000
  O   O4        1.0  0.84640  0.77834  0.03418  1.0000
