data_image0
_chemical_formula_structural       Ni3H20C20N14O12
_chemical_formula_sum              "Ni3 H20 C20 N14 O12"
_cell_length_a       7.29994
_cell_length_b       9.76707
_cell_length_c       11.7712
_cell_angle_alpha    66.6881
_cell_angle_beta     80.98
_cell_angle_gamma    74.1114

_space_group_name_H-M_alt    "P 1"
_space_group_IT_number       1

loop_
  _space_group_symop_operation_xyz
  'x, y, z'

loop_
  _atom_site_type_symbol
  _atom_site_label
  _atom_site_symmetry_multiplicity
  _atom_site_fract_x
  _atom_site_fract_y
  _atom_site_fract_z
  _atom_site_occupancy
  Ni  Ni1       1.0  0.44575  0.50771  0.37721  1.0000
  Ni  Ni2       1.0  0.55422  0.49228  0.62296  1.0000
  Ni  Ni3       1.0  0.50017  0.49999  0.99974  1.0000
  H   H1        1.0  0.84361  0.29815  0.09097  1.0000
  H   H2        1.0  0.15644  0.70188  0.90894  1.0000
  H   H3        1.0  0.68510  0.20638  0.12136  1.0000
  H   H4        1.0  0.31479  0.79382  0.87856  1.0000
  H   H5        1.0  0.22568  0.46568  0.24389  1.0000
  H   H6        1.0  0.77447  0.53438  0.75619  1.0000
  H   H7        1.0  0.10042  0.56779  0.32584  1.0000
  H   H8        1.0  0.89959  0.43230  0.67413  1.0000
  H   H9        1.0  0.11398  0.09175  0.23559  1.0000
  H   H10       1.0  0.88612  0.90826  0.76442  1.0000
  H   H11       1.0  0.12867  0.23828  0.51244  1.0000
  H   H12       1.0  0.87130  0.76177  0.48755  1.0000
  H   H13       1.0  0.08528  0.24182  0.36848  1.0000
  H   H14       1.0  0.91471  0.75818  0.63153  1.0000
  H   H15       1.0  0.97500  0.72950  0.09592  1.0000
  H   H16       1.0  0.02503  0.27032  0.90419  1.0000
  H   H17       1.0  0.20252  0.84561  0.18591  1.0000
  H   H18       1.0  0.79754  0.15435  0.81415  1.0000
  H   H19       1.0  0.46745  0.75365  0.71412  1.0000
  H   H20       1.0  0.53254  0.24639  0.28592  1.0000
  C   C1        1.0  0.77670  0.61971  0.35378  1.0000
  C   C2        1.0  0.22324  0.38026  0.64622  1.0000
  C   C3        1.0  0.74889  0.62948  0.22922  1.0000
  C   C4        1.0  0.25100  0.37040  0.77076  1.0000
  C   C5        1.0  0.85233  0.67978  0.11633  1.0000
  C   C6        1.0  0.14762  0.32015  0.88366  1.0000
  C   C7        1.0  0.76534  0.64500  0.03663  1.0000
  C   C8        1.0  0.23455  0.35512  0.96330  1.0000
  C   C9        1.0  0.81018  0.65568  0.90843  1.0000
  C   C10       1.0  0.18996  0.34429  0.09156  1.0000
  C   C11       1.0  0.23321  0.85273  0.27035  1.0000
  C   C12       1.0  0.76682  0.14725  0.72970  1.0000
  C   C13       1.0  0.24376  0.94934  0.40864  1.0000
  C   C14       1.0  0.75625  0.05067  0.59139  1.0000
  C   C15       1.0  0.22503  0.03335  0.48582  1.0000
  C   C16       1.0  0.77497  0.96668  0.51420  1.0000
  C   C17       1.0  0.39704  0.80960  0.62654  1.0000
  C   C18       1.0  0.60296  0.19043  0.37350  1.0000
  C   C19       1.0  0.33526  0.79357  0.45050  1.0000
  C   C20       1.0  0.66469  0.20642  0.54957  1.0000
  N   N1        1.0  0.60705  0.57063  0.21610  1.0000
  N   N2        1.0  0.39269  0.42940  0.78397  1.0000
  N   N3        1.0  0.61642  0.58015  0.09939  1.0000
  N   N4        1.0  0.38332  0.42004  0.90037  1.0000
  N   N5        1.0  0.32616  0.73500  0.36257  1.0000
  N   N6        1.0  0.67380  0.26498  0.63752  1.0000
  N   N7        1.0  0.18054  0.98360  0.29375  1.0000
  N   N8        1.0  0.81951  0.01639  0.70628  1.0000
  N   N9        1.0  0.13151  0.18011  0.45538  1.0000
  N   N10       1.0  0.86850  0.81990  0.54463  1.0000
  N   N11       1.0  0.30569  0.95664  0.59717  1.0000
  N   N12       1.0  0.69431  0.04339  0.40286  1.0000
  N   N13       1.0  0.41668  0.72016  0.56147  1.0000
  N   N14       1.0  0.58328  0.27983  0.43861  1.0000
  O   O1        1.0  0.66973  0.54394  0.44039  1.0000
  O   O2        1.0  0.33035  0.45593  0.55969  1.0000
  O   O3        1.0  0.73225  0.28982  0.05593  1.0000
  O   O4        1.0  0.26794  0.71013  0.94390  1.0000
  O   O5        1.0  0.90155  0.67680  0.36945  1.0000
  O   O6        1.0  0.09824  0.32338  0.63041  1.0000
  O   O7        1.0  0.21268  0.48441  0.32222  1.0000
  O   O8        1.0  0.78722  0.51552  0.67792  1.0000
  O   O9        1.0  0.69881  0.60616  0.86612  1.0000
  O   O10       1.0  0.30149  0.39362  0.13385  1.0000
  O   O11       1.0  0.94974  0.70972  0.84405  1.0000
  O   O12       1.0  0.05036  0.29023  0.15593  1.0000
