data_image0
_chemical_formula_structural       Cd4H24C48O16
_chemical_formula_sum              "Cd4 H24 C48 O16"
_cell_length_a       7.25274
_cell_length_b       7.19578
_cell_length_c       18.8587
_cell_angle_alpha    90.0026
_cell_angle_beta     95.3183
_cell_angle_gamma    89.9988

_space_group_name_H-M_alt    "P 1"
_space_group_IT_number       1

loop_
  _space_group_symop_operation_xyz
  'x, y, z'

loop_
  _atom_site_type_symbol
  _atom_site_label
  _atom_site_symmetry_multiplicity
  _atom_site_fract_x
  _atom_site_fract_y
  _atom_site_fract_z
  _atom_site_occupancy
  Cd  Cd1       1.0  0.65278  0.15736  0.45040  1.0000
  Cd  Cd2       1.0  0.84722  0.65738  0.54961  1.0000
  Cd  Cd3       1.0  0.34722  0.84263  0.54960  1.0000
  Cd  Cd4       1.0  0.15278  0.34260  0.45039  1.0000
  H   H1        1.0  0.52174  0.13812  0.70065  1.0000
  H   H2        1.0  0.97827  0.63809  0.29936  1.0000
  H   H3        1.0  0.47826  0.86189  0.29935  1.0000
  H   H4        1.0  0.02174  0.36190  0.70064  1.0000
  H   H5        1.0  0.43161  0.14353  0.82391  1.0000
  H   H6        1.0  0.06839  0.64351  0.17609  1.0000
  H   H7        1.0  0.56839  0.85648  0.17608  1.0000
  H   H8        1.0  0.93161  0.35650  0.82391  1.0000
  H   H9        1.0  0.50831  0.08461  0.95250  1.0000
  H   H10       1.0  0.99167  0.58459  0.04751  1.0000
  H   H11       1.0  0.49169  0.91542  0.04750  1.0000
  H   H12       1.0  0.00833  0.41542  0.95249  1.0000
  H   H13       1.0  0.81135  0.93934  0.99629  1.0000
  H   H14       1.0  0.68864  0.43933  0.00371  1.0000
  H   H15       1.0  0.18865  0.06068  0.00371  1.0000
  H   H16       1.0  0.31136  0.56068  0.99629  1.0000
  H   H17       1.0  0.04151  0.86417  0.91086  1.0000
  H   H18       1.0  0.45849  0.36416  0.08915  1.0000
  H   H19       1.0  0.95849  0.13583  0.08915  1.0000
  H   H20       1.0  0.54151  0.63585  0.91085  1.0000
  H   H21       1.0  0.13658  0.87234  0.78719  1.0000
  H   H22       1.0  0.36343  0.37231  0.21281  1.0000
  H   H23       1.0  0.86341  0.12765  0.21281  1.0000
  H   H24       1.0  0.63657  0.62769  0.78719  1.0000
  C   C1        1.0  0.74493  0.10096  0.59581  1.0000
  C   C2        1.0  0.75508  0.60096  0.40420  1.0000
  C   C3        1.0  0.25507  0.89903  0.40419  1.0000
  C   C4        1.0  0.24493  0.39904  0.59580  1.0000
  C   C5        1.0  0.78810  0.05046  0.67276  1.0000
  C   C6        1.0  0.71192  0.55044  0.32725  1.0000
  C   C7        1.0  0.21190  0.94953  0.32724  1.0000
  C   C8        1.0  0.28809  0.44955  0.67275  1.0000
  C   C9        1.0  0.65722  0.08343  0.71984  1.0000
  C   C10       1.0  0.84278  0.58342  0.28017  1.0000
  C   C11       1.0  0.34277  0.91657  0.28016  1.0000
  C   C12       1.0  0.15722  0.41658  0.71983  1.0000
  C   C13       1.0  0.69516  0.04471  0.79348  1.0000
  C   C14       1.0  0.80484  0.54469  0.20653  1.0000
  C   C15       1.0  0.30484  0.95529  0.20652  1.0000
  C   C16       1.0  0.19516  0.45531  0.79347  1.0000
  C   C17       1.0  0.56507  0.08391  0.84319  1.0000
  C   C18       1.0  0.93493  0.58388  0.15681  1.0000
  C   C19       1.0  0.43493  0.91610  0.15681  1.0000
  C   C20       1.0  0.06507  0.41612  0.84319  1.0000
  C   C21       1.0  0.60804  0.04946  0.91479  1.0000
  C   C22       1.0  0.89195  0.54945  0.08522  1.0000
  C   C23       1.0  0.39195  0.95056  0.08521  1.0000
  C   C24       1.0  0.10806  0.45056  0.91478  1.0000
  C   C25       1.0  0.78028  0.96887  0.93969  1.0000
  C   C26       1.0  0.71971  0.46886  0.06031  1.0000
  C   C27       1.0  0.21972  0.03115  0.06031  1.0000
  C   C28       1.0  0.28029  0.53115  0.93969  1.0000
  C   C29       1.0  0.90881  0.92730  0.89248  1.0000
  C   C30       1.0  0.59119  0.42729  0.10753  1.0000
  C   C31       1.0  0.09119  0.07271  0.10752  1.0000
  C   C32       1.0  0.40881  0.57272  0.89247  1.0000
  C   C33       1.0  0.87122  0.96660  0.81876  1.0000
  C   C34       1.0  0.62878  0.46658  0.18125  1.0000
  C   C35       1.0  0.12877  0.03340  0.18124  1.0000
  C   C36       1.0  0.37122  0.53343  0.81875  1.0000
  C   C37       1.0  0.00262  0.93314  0.76932  1.0000
  C   C38       1.0  0.49739  0.43312  0.23069  1.0000
  C   C39       1.0  0.99737  0.06685  0.23068  1.0000
  C   C40       1.0  0.50262  0.56688  0.76931  1.0000
  C   C41       1.0  0.96376  0.97353  0.69783  1.0000
  C   C42       1.0  0.53626  0.47350  0.30218  1.0000
  C   C43       1.0  0.03624  0.02647  0.30217  1.0000
  C   C44       1.0  0.46374  0.52649  0.69782  1.0000
  C   C45       1.0  0.10240  0.92587  0.64749  1.0000
  C   C46       1.0  0.39762  0.42585  0.35252  1.0000
  C   C47       1.0  0.89760  0.07411  0.35251  1.0000
  C   C48       1.0  0.60238  0.57414  0.64748  1.0000
  O   O1        1.0  0.64542  0.98572  0.55549  1.0000
  O   O2        1.0  0.85458  0.48571  0.44452  1.0000
  O   O3        1.0  0.35456  0.01428  0.44451  1.0000
  O   O4        1.0  0.14543  0.51428  0.55548  1.0000
  O   O5        1.0  0.80219  0.25005  0.57134  1.0000
  O   O6        1.0  0.69783  0.75005  0.42867  1.0000
  O   O7        1.0  0.19782  0.74994  0.42866  1.0000
  O   O8        1.0  0.30216  0.24994  0.57133  1.0000
  O   O9        1.0  0.04340  0.89952  0.58082  1.0000
  O   O10       1.0  0.45662  0.39951  0.41919  1.0000
  O   O11       1.0  0.95659  0.10047  0.41918  1.0000
  O   O12       1.0  0.54339  0.60048  0.58081  1.0000
  O   O13       1.0  0.27185  0.91051  0.66815  1.0000
  O   O14       1.0  0.22818  0.41048  0.33186  1.0000
  O   O15       1.0  0.72815  0.08947  0.33185  1.0000
  O   O16       1.0  0.77183  0.58951  0.66814  1.0000
