data_image0
_chemical_formula_structural       Cd2H28C34N2O12
_chemical_formula_sum              "Cd2 H28 C34 N2 O12"
_cell_length_a       7.70593
_cell_length_b       8.72331
_cell_length_c       12.16
_cell_angle_alpha    75.0861
_cell_angle_beta     82.7502
_cell_angle_gamma    92.5198

_space_group_name_H-M_alt    "P 1"
_space_group_IT_number       1

loop_
  _space_group_symop_operation_xyz
  'x, y, z'

loop_
  _atom_site_type_symbol
  _atom_site_label
  _atom_site_symmetry_multiplicity
  _atom_site_fract_x
  _atom_site_fract_y
  _atom_site_fract_z
  _atom_site_occupancy
  Cd  Cd1       1.0  0.23026  0.32527  0.95304  1.0000
  Cd  Cd2       1.0  0.76975  0.67473  0.04696  1.0000
  H   H1        1.0  0.34495  0.22891  0.34971  1.0000
  H   H2        1.0  0.65505  0.77109  0.65029  1.0000
  H   H3        1.0  0.34615  0.18982  0.55978  1.0000
  H   H4        1.0  0.65385  0.81018  0.44022  1.0000
  H   H5        1.0  0.50534  0.13906  0.72771  1.0000
  H   H6        1.0  0.49466  0.86096  0.27229  1.0000
  H   H7        1.0  0.82668  0.10317  0.70331  1.0000
  H   H8        1.0  0.17332  0.89684  0.29668  1.0000
  H   H9        1.0  0.98836  0.12639  0.50920  1.0000
  H   H10       1.0  0.01164  0.87362  0.49080  1.0000
  H   H11       1.0  0.99118  0.18188  0.29673  1.0000
  H   H12       1.0  0.00881  0.81811  0.70327  1.0000
  H   H13       1.0  0.38955  0.40368  0.69298  1.0000
  H   H14       1.0  0.61044  0.59631  0.30702  1.0000
  H   H15       1.0  0.30516  0.47172  0.49729  1.0000
  H   H16       1.0  0.69483  0.52826  0.50271  1.0000
  H   H17       1.0  0.77119  0.48199  0.65689  1.0000
  H   H18       1.0  0.22881  0.51803  0.34311  1.0000
  H   H19       1.0  0.88276  0.42317  0.84388  1.0000
  H   H20       1.0  0.11724  0.57685  0.15612  1.0000
  H   H21       1.0  0.56675  0.29404  0.91946  1.0000
  H   H22       1.0  0.43325  0.70597  0.08054  1.0000
  H   H23       1.0  0.58006  0.48102  0.86688  1.0000
  H   H24       1.0  0.41994  0.51899  0.13313  1.0000
  H   H25       1.0  0.34209  0.00553  0.91495  1.0000
  H   H26       1.0  0.65792  0.99447  0.08504  1.0000
  H   H27       1.0  0.14382  0.01454  0.90347  1.0000
  H   H28       1.0  0.85619  0.98547  0.09652  1.0000
  C   C1        1.0  0.47885  0.24163  0.13018  1.0000
  C   C2        1.0  0.52116  0.75839  0.86982  1.0000
  C   C3        1.0  0.57603  0.23441  0.23044  1.0000
  C   C4        1.0  0.42397  0.76559  0.76956  1.0000
  C   C5        1.0  0.48690  0.22209  0.33852  1.0000
  C   C6        1.0  0.51309  0.77790  0.66148  1.0000
  C   C7        1.0  0.57544  0.19241  0.43639  1.0000
  C   C8        1.0  0.42455  0.80757  0.56361  1.0000
  C   C9        1.0  0.48735  0.17949  0.54834  1.0000
  C   C10       1.0  0.51265  0.82050  0.45166  1.0000
  C   C11       1.0  0.57620  0.14956  0.64238  1.0000
  C   C12       1.0  0.42380  0.85043  0.35762  1.0000
  C   C13       1.0  0.75782  0.12828  0.62839  1.0000
  C   C14       1.0  0.24217  0.87172  0.37161  1.0000
  C   C15       1.0  0.84752  0.13941  0.52061  1.0000
  C   C16       1.0  0.15247  0.86057  0.47939  1.0000
  C   C17       1.0  0.75991  0.17173  0.42220  1.0000
  C   C18       1.0  0.24008  0.82826  0.57779  1.0000
  C   C19       1.0  0.84932  0.18932  0.30982  1.0000
  C   C20       1.0  0.15068  0.81066  0.69019  1.0000
  C   C21       1.0  0.76128  0.22436  0.21550  1.0000
  C   C22       1.0  0.23871  0.77563  0.78450  1.0000
  C   C23       1.0  0.86482  0.27593  0.09722  1.0000
  C   C24       1.0  0.13519  0.72406  0.90278  1.0000
  C   C25       1.0  0.25414  0.42295  0.67987  1.0000
  C   C26       1.0  0.74586  0.57703  0.32013  1.0000
  C   C27       1.0  0.20449  0.45945  0.57086  1.0000
  C   C28       1.0  0.79550  0.54054  0.42914  1.0000
  C   C29       1.0  0.02859  0.48175  0.55742  1.0000
  C   C30       1.0  0.97141  0.51824  0.44258  1.0000
  C   C31       1.0  0.91060  0.46818  0.65802  1.0000
  C   C32       1.0  0.08940  0.53182  0.34199  1.0000
  C   C33       1.0  0.97023  0.43305  0.76406  1.0000
  C   C34       1.0  0.02977  0.56696  0.23594  1.0000
  N   N1        1.0  0.13920  0.40941  0.77511  1.0000
  N   N2        1.0  0.86080  0.59058  0.22489  1.0000
  O   O1        1.0  0.35608  0.33709  0.11545  1.0000
  O   O2        1.0  0.64393  0.66292  0.88455  1.0000
  O   O3        1.0  0.51975  0.15239  0.06507  1.0000
  O   O4        1.0  0.48025  0.84764  0.93491  1.0000
  O   O5        1.0  0.82738  0.40207  0.02911  1.0000
  O   O6        1.0  0.17263  0.59793  0.97089  1.0000
  O   O7        1.0  0.98960  0.19096  0.07443  1.0000
  O   O8        1.0  0.01041  0.80904  0.92557  1.0000
  O   O9        1.0  0.25243  0.08286  0.89487  1.0000
  O   O10       1.0  0.74758  0.91715  0.10512  1.0000
  O   O11       1.0  0.53035  0.37819  0.85718  1.0000
  O   O12       1.0  0.46966  0.62182  0.14281  1.0000
