data_image0
_chemical_formula_structural       Zn2H36C44N6O10
_chemical_formula_sum              "Zn2 H36 C44 N6 O10"
_cell_length_a       8.68205
_cell_length_b       10.7696
_cell_length_c       12.4503
_cell_angle_alpha    113.641
_cell_angle_beta     92.5445
_cell_angle_gamma    112.308

_space_group_name_H-M_alt    "P 1"
_space_group_IT_number       1

loop_
  _space_group_symop_operation_xyz
  'x, y, z'

loop_
  _atom_site_type_symbol
  _atom_site_label
  _atom_site_symmetry_multiplicity
  _atom_site_fract_x
  _atom_site_fract_y
  _atom_site_fract_z
  _atom_site_occupancy
  Zn  Zn1       1.0  0.51375  0.40165  0.72383  1.0000
  Zn  Zn2       1.0  0.48625  0.59835  0.27617  1.0000
  H   H1        1.0  0.20267  0.39615  0.41474  1.0000
  H   H2        1.0  0.79733  0.60385  0.58526  1.0000
  H   H3        1.0  0.97989  0.55927  0.71162  1.0000
  H   H4        1.0  0.02011  0.44074  0.28838  1.0000
  H   H5        1.0  0.94728  0.81135  0.78786  1.0000
  H   H6        1.0  0.05272  0.18865  0.21214  1.0000
  H   H7        1.0  0.81016  0.93104  0.12948  1.0000
  H   H8        1.0  0.18984  0.06896  0.87052  1.0000
  H   H9        1.0  0.43830  0.33350  0.41523  1.0000
  H   H10       1.0  0.56171  0.66650  0.58477  1.0000
  H   H11       1.0  0.43137  0.20281  0.19769  1.0000
  H   H12       1.0  0.56863  0.79719  0.80231  1.0000
  H   H13       1.0  0.55656  0.02078  0.12300  1.0000
  H   H14       1.0  0.44344  0.97922  0.87700  1.0000
  H   H15       1.0  0.69345  0.96167  0.26593  1.0000
  H   H16       1.0  0.30655  0.03832  0.73407  1.0000
  H   H17       1.0  0.90869  0.14335  0.73383  1.0000
  H   H18       1.0  0.09131  0.85665  0.26616  1.0000
  H   H19       1.0  0.96135  0.21264  0.95046  1.0000
  H   H20       1.0  0.03865  0.78736  0.04954  1.0000
  H   H21       1.0  0.82304  0.36605  0.08433  1.0000
  H   H22       1.0  0.17696  0.63396  0.91567  1.0000
  H   H23       1.0  0.63492  0.43800  0.98867  1.0000
  H   H24       1.0  0.36508  0.56200  0.01133  1.0000
  H   H25       1.0  0.71090  0.90619  0.42113  1.0000
  H   H26       1.0  0.28910  0.09381  0.57887  1.0000
  H   H27       1.0  0.75132  0.96854  0.57757  1.0000
  H   H28       1.0  0.24868  0.03146  0.42243  1.0000
  H   H29       1.0  0.04740  0.16042  0.59774  1.0000
  H   H30       1.0  0.95260  0.83958  0.40226  1.0000
  H   H31       1.0  0.99872  0.10154  0.44128  1.0000
  H   H32       1.0  0.00128  0.89846  0.55872  1.0000
  H   H33       1.0  0.24453  0.36393  0.78577  1.0000
  H   H34       1.0  0.75547  0.63607  0.21423  1.0000
  H   H35       1.0  0.33073  0.31608  0.87436  1.0000
  H   H36       1.0  0.66927  0.68392  0.12564  1.0000
  C   C1        1.0  0.20911  0.44521  0.64940  1.0000
  C   C2        1.0  0.79089  0.55480  0.35060  1.0000
  C   C3        1.0  0.10320  0.47448  0.57170  1.0000
  C   C4        1.0  0.89680  0.52553  0.42830  1.0000
  C   C5        1.0  0.11275  0.44042  0.45178  1.0000
  C   C6        1.0  0.88725  0.55958  0.54822  1.0000
  C   C7        1.0  0.98921  0.53432  0.61896  1.0000
  C   C8        1.0  0.01079  0.46568  0.38104  1.0000
  C   C9        1.0  0.71970  0.70010  0.90731  1.0000
  C   C10       1.0  0.28030  0.29990  0.09269  1.0000
  C   C11       1.0  0.86285  0.85596  0.95377  1.0000
  C   C12       1.0  0.13714  0.14404  0.04623  1.0000
  C   C13       1.0  0.97066  0.89460  0.88044  1.0000
  C   C14       1.0  0.02934  0.10540  0.11956  1.0000
  C   C15       1.0  0.89362  0.96278  0.07323  1.0000
  C   C16       1.0  0.10638  0.03723  0.92677  1.0000
  C   C17       1.0  0.57342  0.22291  0.46291  1.0000
  C   C18       1.0  0.42658  0.77709  0.53709  1.0000
  C   C19       1.0  0.49305  0.25328  0.38283  1.0000
  C   C20       1.0  0.50695  0.74672  0.61717  1.0000
  C   C21       1.0  0.49043  0.17933  0.26143  1.0000
  C   C22       1.0  0.50957  0.82067  0.73857  1.0000
  C   C23       1.0  0.56262  0.07637  0.21912  1.0000
  C   C24       1.0  0.43737  0.92363  0.78088  1.0000
  C   C25       1.0  0.64109  0.04378  0.29743  1.0000
  C   C26       1.0  0.35891  0.95622  0.70257  1.0000
  C   C27       1.0  0.64635  0.12008  0.41928  1.0000
  C   C28       1.0  0.35365  0.87991  0.58072  1.0000
  C   C29       1.0  0.68509  0.21123  0.61793  1.0000
  C   C30       1.0  0.31491  0.78877  0.38207  1.0000
  C   C31       1.0  0.73522  0.24757  0.74441  1.0000
  C   C32       1.0  0.26478  0.75243  0.25559  1.0000
  C   C33       1.0  0.84527  0.20484  0.79061  1.0000
  C   C34       1.0  0.15473  0.79516  0.20939  1.0000
  C   C35       1.0  0.87709  0.24620  0.91354  1.0000
  C   C36       1.0  0.12291  0.75380  0.08646  1.0000
  C   C37       1.0  0.80118  0.32969  0.98751  1.0000
  C   C38       1.0  0.19882  0.67031  0.01249  1.0000
  C   C39       1.0  0.69678  0.37178  0.93524  1.0000
  C   C40       1.0  0.30322  0.62822  0.06476  1.0000
  C   C41       1.0  0.78254  0.00535  0.50778  1.0000
  C   C42       1.0  0.21746  0.99465  0.49222  1.0000
  C   C43       1.0  0.97250  0.06263  0.51085  1.0000
  C   C44       1.0  0.02750  0.93737  0.48915  1.0000
  N   N1        1.0  0.59824  0.27614  0.58661  1.0000
  N   N2        1.0  0.40176  0.72386  0.41339  1.0000
  N   N3        1.0  0.71415  0.11361  0.51891  1.0000
  N   N4        1.0  0.28585  0.88639  0.48109  1.0000
  N   N5        1.0  0.66465  0.33204  0.81724  1.0000
  N   N6        1.0  0.33535  0.66796  0.18276  1.0000
  O   O1        1.0  0.33171  0.41402  0.61255  1.0000
  O   O2        1.0  0.66829  0.58598  0.38745  1.0000
  O   O3        1.0  0.16612  0.44906  0.74681  1.0000
  O   O4        1.0  0.83388  0.55094  0.25319  1.0000
  O   O5        1.0  0.68614  0.61632  0.79289  1.0000
  O   O6        1.0  0.31386  0.38368  0.20711  1.0000
  O   O7        1.0  0.64202  0.65957  0.97902  1.0000
  O   O8        1.0  0.35798  0.34043  0.02098  1.0000
  O   O9        1.0  0.31036  0.30350  0.79047  1.0000
  O   O10       1.0  0.68964  0.69650  0.20953  1.0000
