data_image0
_chemical_formula_structural       Li4H8C8O12
_chemical_formula_sum              "Li4 H8 C8 O12"
_cell_length_a       4.99143
_cell_length_b       7.97835
_cell_length_c       8.20577
_cell_angle_alpha    80.1643
_cell_angle_beta     72.3106
_cell_angle_gamma    71.7128

_space_group_name_H-M_alt    "P 1"
_space_group_IT_number       1

loop_
  _space_group_symop_operation_xyz
  'x, y, z'

loop_
  _atom_site_type_symbol
  _atom_site_label
  _atom_site_symmetry_multiplicity
  _atom_site_fract_x
  _atom_site_fract_y
  _atom_site_fract_z
  _atom_site_occupancy
  Li  Li1       1.0  0.64388  0.58603  0.05572  1.0000
  Li  Li2       1.0  0.28663  0.41385  0.94468  1.0000
  Li  Li3       1.0  0.76655  0.07162  0.58230  1.0000
  Li  Li4       1.0  0.41985  0.92926  0.41816  1.0000
  H   H1        1.0  0.46704  0.39723  0.62122  1.0000
  H   H2        1.0  0.48409  0.60305  0.37922  1.0000
  H   H3        1.0  0.68869  0.89382  0.88919  1.0000
  H   H4        1.0  0.47305  0.10460  0.11035  1.0000
  H   H5        1.0  0.09803  0.31913  0.50347  1.0000
  H   H6        1.0  0.91902  0.68165  0.49652  1.0000
  H   H7        1.0  0.12598  0.82052  0.01422  1.0000
  H   H8        1.0  0.96090  0.17997  0.98587  1.0000
  C   C1        1.0  0.88797  0.44276  0.73691  1.0000
  C   C2        1.0  0.06672  0.55736  0.26316  1.0000
  C   C3        1.0  0.88363  0.41032  0.55887  1.0000
  C   C4        1.0  0.85183  0.59019  0.44121  1.0000
  C   C5        1.0  0.25670  0.91307  0.95094  1.0000
  C   C6        1.0  0.12147  0.08684  0.04866  1.0000
  C   C7        1.0  0.21965  0.95742  0.76902  1.0000
  C   C8        1.0  0.94745  0.04237  0.23061  1.0000
  O   O1        1.0  0.66073  0.45563  0.86239  1.0000
  O   O2        1.0  0.97827  0.54396  0.13763  1.0000
  O   O3        1.0  0.66942  0.32839  0.56102  1.0000
  O   O4        1.0  0.55730  0.67185  0.43945  1.0000
  O   O5        1.0  0.54568  0.82878  0.96226  1.0000
  O   O6        1.0  0.33797  0.17046  0.03747  1.0000
  O   O7        1.0  0.12709  0.45801  0.74916  1.0000
  O   O8        1.0  0.33339  0.54207  0.25110  1.0000
  O   O9        1.0  0.96658  0.97116  0.75545  1.0000
  O   O10       1.0  0.69618  0.02622  0.24390  1.0000
  O   O11       1.0  0.42994  0.98356  0.64348  1.0000
  O   O12       1.0  0.05715  0.01882  0.35640  1.0000
