data_image0
_chemical_formula_structural       Li2H10C8O12
_chemical_formula_sum              "Li2 H10 C8 O12"
_cell_length_a       5.07337
_cell_length_b       7.52715
_cell_length_c       8.33121
_cell_angle_alpha    89.9996
_cell_angle_beta     90.0004
_cell_angle_gamma    107.979

_space_group_name_H-M_alt    "P 1"
_space_group_IT_number       1

loop_
  _space_group_symop_operation_xyz
  'x, y, z'

loop_
  _atom_site_type_symbol
  _atom_site_label
  _atom_site_symmetry_multiplicity
  _atom_site_fract_x
  _atom_site_fract_y
  _atom_site_fract_z
  _atom_site_occupancy
  Li  Li1       1.0  0.43168  0.82558  0.24814  1.0000
  Li  Li2       1.0  0.56833  0.17443  0.74814  1.0000
  H   H1        1.0  0.84460  0.70505  0.01298  1.0000
  H   H2        1.0  0.15541  0.29495  0.51296  1.0000
  H   H3        1.0  0.93224  0.75122  0.72335  1.0000
  H   H4        1.0  0.06775  0.24878  0.22334  1.0000
  H   H5        1.0  0.12361  0.36130  0.87466  1.0000
  H   H6        1.0  0.87640  0.63870  0.37464  1.0000
  H   H7        1.0  0.41159  0.87004  0.95212  1.0000
  H   H8        1.0  0.58841  0.12996  0.45212  1.0000
  H   H9        1.0  0.65171  0.87479  0.57532  1.0000
  H   H10       1.0  0.34829  0.12521  0.07532  1.0000
  C   C1        1.0  0.49795  0.53066  0.88418  1.0000
  C   C2        1.0  0.50207  0.46933  0.38418  1.0000
  C   C3        1.0  0.67981  0.72477  0.93592  1.0000
  C   C4        1.0  0.32019  0.27523  0.43591  1.0000
  C   C5        1.0  0.81086  0.83108  0.78299  1.0000
  C   C6        1.0  0.18913  0.16892  0.28299  1.0000
  C   C7        1.0  0.00959  0.02219  0.83138  1.0000
  C   C8        1.0  0.99039  0.97781  0.33138  1.0000
  O   O1        1.0  0.23261  0.49174  0.91794  1.0000
  O   O2        1.0  0.76740  0.50827  0.41792  1.0000
  O   O3        1.0  0.60472  0.42535  0.81460  1.0000
  O   O4        1.0  0.39524  0.57466  0.31458  1.0000
  O   O5        1.0  0.53791  0.82804  0.02384  1.0000
  O   O6        1.0  0.46210  0.17197  0.52384  1.0000
  O   O7        1.0  0.58722  0.84612  0.68764  1.0000
  O   O8        1.0  0.41279  0.15389  0.18764  1.0000
  O   O9        1.0  0.24232  0.02632  0.89208  1.0000
  O   O10       1.0  0.75769  0.97368  0.39208  1.0000
  O   O11       1.0  0.93420  0.16613  0.80972  1.0000
  O   O12       1.0  0.06580  0.83385  0.30971  1.0000
