data_image0
_chemical_formula_structural       Li4H8C8O12
_chemical_formula_sum              "Li4 H8 C8 O12"
_cell_length_a       5.3375
_cell_length_b       5.33731
_cell_length_c       11.7261
_cell_angle_alpha    89.9997
_cell_angle_beta     89.9994
_cell_angle_gamma    116.433

_space_group_name_H-M_alt    "P 1"
_space_group_IT_number       1

loop_
  _space_group_symop_operation_xyz
  'x, y, z'

loop_
  _atom_site_type_symbol
  _atom_site_label
  _atom_site_symmetry_multiplicity
  _atom_site_fract_x
  _atom_site_fract_y
  _atom_site_fract_z
  _atom_site_occupancy
  Li  Li1       1.0  0.19498  0.62037  0.93213  1.0000
  Li  Li2       1.0  0.80499  0.37961  0.43214  1.0000
  Li  Li3       1.0  0.62035  0.19499  0.06785  1.0000
  Li  Li4       1.0  0.37965  0.80500  0.56788  1.0000
  H   H1        1.0  0.57611  0.70339  0.14355  1.0000
  H   H2        1.0  0.42391  0.29660  0.64356  1.0000
  H   H3        1.0  0.70335  0.57608  0.85646  1.0000
  H   H4        1.0  0.29660  0.42391  0.35644  1.0000
  H   H5        1.0  0.02643  0.84043  0.15759  1.0000
  H   H6        1.0  0.97358  0.15956  0.65757  1.0000
  H   H7        1.0  0.84045  0.02644  0.84242  1.0000
  H   H8        1.0  0.15953  0.97357  0.34243  1.0000
  C   C1        1.0  0.14495  0.27657  0.12526  1.0000
  C   C2        1.0  0.85507  0.72343  0.62526  1.0000
  C   C3        1.0  0.27655  0.14494  0.87474  1.0000
  C   C4        1.0  0.72343  0.85505  0.37474  1.0000
  C   C5        1.0  0.95815  0.99867  0.18397  1.0000
  C   C6        1.0  0.04184  0.00134  0.68397  1.0000
  C   C7        1.0  0.99865  0.95815  0.81604  1.0000
  C   C8        1.0  0.00134  0.04185  0.31603  1.0000
  O   O1        1.0  0.02762  0.40197  0.07110  1.0000
  O   O2        1.0  0.97240  0.59802  0.57110  1.0000
  O   O3        1.0  0.40198  0.02761  0.92889  1.0000
  O   O4        1.0  0.59803  0.97238  0.42890  1.0000
  O   O5        1.0  0.40751  0.36513  0.13533  1.0000
  O   O6        1.0  0.59249  0.63484  0.63534  1.0000
  O   O7        1.0  0.36514  0.40754  0.86465  1.0000
  O   O8        1.0  0.63484  0.59248  0.36464  1.0000
  O   O9        1.0  0.67586  0.91356  0.15001  1.0000
  O   O10       1.0  0.32421  0.08647  0.65002  1.0000
  O   O11       1.0  0.91352  0.67583  0.84999  1.0000
  O   O12       1.0  0.08646  0.32421  0.34999  1.0000
