data_image0
_chemical_formula_structural       Li4H8C8O12
_chemical_formula_sum              "Li4 H8 C8 O12"
_cell_length_a       5.00524
_cell_length_b       6.56301
_cell_length_c       8.85998
_cell_angle_alpha    95.8623
_cell_angle_beta     90.0001
_cell_angle_gamma    89.9966

_space_group_name_H-M_alt    "P 1"
_space_group_IT_number       1

loop_
  _space_group_symop_operation_xyz
  'x, y, z'

loop_
  _atom_site_type_symbol
  _atom_site_label
  _atom_site_symmetry_multiplicity
  _atom_site_fract_x
  _atom_site_fract_y
  _atom_site_fract_z
  _atom_site_occupancy
  Li  Li1       1.0  0.83858  0.13014  0.26263  1.0000
  Li  Li2       1.0  0.33862  0.86991  0.23737  1.0000
  Li  Li3       1.0  0.16132  0.86990  0.73736  1.0000
  Li  Li4       1.0  0.66149  0.13013  0.76263  1.0000
  H   H1        1.0  0.65794  0.30692  0.04408  1.0000
  H   H2        1.0  0.15773  0.69311  0.45590  1.0000
  H   H3        1.0  0.34227  0.69313  0.95590  1.0000
  H   H4        1.0  0.84212  0.30692  0.54409  1.0000
  H   H5        1.0  0.18556  0.45366  0.13055  1.0000
  H   H6        1.0  0.68563  0.54635  0.36951  1.0000
  H   H7        1.0  0.81438  0.54633  0.86952  1.0000
  H   H8        1.0  0.31438  0.45364  0.63057  1.0000
  C   C1        1.0  0.16908  0.24406  0.92676  1.0000
  C   C2        1.0  0.66920  0.75590  0.57319  1.0000
  C   C3        1.0  0.83086  0.75591  0.07319  1.0000
  C   C4        1.0  0.33088  0.24405  0.42677  1.0000
  C   C5        1.0  0.03854  0.40560  0.04159  1.0000
  C   C6        1.0  0.53848  0.59441  0.45837  1.0000
  C   C7        1.0  0.96151  0.59443  0.95838  1.0000
  C   C8        1.0  0.46144  0.40562  0.54162  1.0000
  O   O1        1.0  0.81322  0.33002  0.11597  1.0000
  O   O2        1.0  0.31311  0.66994  0.38405  1.0000
  O   O3        1.0  0.18687  0.66996  0.88405  1.0000
  O   O4        1.0  0.68679  0.33003  0.61597  1.0000
  O   O5        1.0  0.01923  0.12777  0.84020  1.0000
  O   O6        1.0  0.51917  0.87210  0.65971  1.0000
  O   O7        1.0  0.98081  0.87211  0.15975  1.0000
  O   O8        1.0  0.48077  0.12780  0.34023  1.0000
  O   O9        1.0  0.42254  0.23694  0.92154  1.0000
  O   O10       1.0  0.92274  0.76314  0.57853  1.0000
  O   O11       1.0  0.57731  0.76313  0.07850  1.0000
  O   O12       1.0  0.07740  0.23692  0.42152  1.0000
