data_image0
_chemical_formula_structural       Li4H8C8O12
_chemical_formula_sum              "Li4 H8 C8 O12"
_cell_length_a       5.36323
_cell_length_b       5.558
_cell_length_c       11.2786
_cell_angle_alpha    93.3537
_cell_angle_beta     89.9923
_cell_angle_gamma    118.828

_space_group_name_H-M_alt    "P 1"
_space_group_IT_number       1

loop_
  _space_group_symop_operation_xyz
  'x, y, z'

loop_
  _atom_site_type_symbol
  _atom_site_label
  _atom_site_symmetry_multiplicity
  _atom_site_fract_x
  _atom_site_fract_y
  _atom_site_fract_z
  _atom_site_occupancy
  Li  Li1       1.0  0.45448  0.11289  0.17274  1.0000
  Li  Li2       1.0  0.65763  0.11262  0.67278  1.0000
  Li  Li3       1.0  0.23342  0.55400  0.81431  1.0000
  Li  Li4       1.0  0.32103  0.55402  0.31432  1.0000
  H   H1        1.0  0.83241  0.90897  0.89924  1.0000
  H   H2        1.0  0.07671  0.90833  0.39960  1.0000
  H   H3        1.0  0.68567  0.71628  0.09238  1.0000
  H   H4        1.0  0.03007  0.71573  0.59286  1.0000
  H   H5        1.0  0.29176  0.06156  0.88616  1.0000
  H   H6        1.0  0.77009  0.06103  0.38632  1.0000
  H   H7        1.0  0.99722  0.17125  0.10843  1.0000
  H   H8        1.0  0.17322  0.17099  0.60852  1.0000
  C   C1        1.0  0.91019  0.76983  0.92819  1.0000
  C   C2        1.0  0.85982  0.76920  0.42848  1.0000
  C   C3        1.0  0.00189  0.59112  0.11581  1.0000
  C   C4        1.0  0.58839  0.59071  0.61593  1.0000
  C   C5        1.0  0.70858  0.48030  0.87449  1.0000
  C   C6        1.0  0.77213  0.47972  0.37469  1.0000
  C   C7        1.0  0.90687  0.78442  0.06637  1.0000
  C   C8        1.0  0.87708  0.78379  0.56664  1.0000
  O   O1        1.0  0.44294  0.39150  0.88609  1.0000
  O   O2        1.0  0.94886  0.39069  0.38610  1.0000
  O   O3        1.0  0.18915  0.85424  0.88815  1.0000
  O   O4        1.0  0.66534  0.85377  0.38837  1.0000
  O   O5        1.0  0.81685  0.34738  0.82037  1.0000
  O   O6        1.0  0.53095  0.34691  0.32062  1.0000
  O   O7        1.0  0.82925  0.33407  0.09981  1.0000
  O   O8        1.0  0.50364  0.33356  0.59995  1.0000
  O   O9        1.0  0.09485  0.05480  0.11308  1.0000
  O   O10       1.0  0.95920  0.05432  0.61319  1.0000
  O   O11       1.0  0.24417  0.69598  0.16900  1.0000
  O   O12       1.0  0.45102  0.69580  0.66902  1.0000
