data_image0
_chemical_formula_structural       Zn5P2H20C26O14
_chemical_formula_sum              "Zn5 P2 H20 C26 O14"
_cell_length_a       5.34906
_cell_length_b       7.76782
_cell_length_c       16.7454
_cell_angle_alpha    102.391
_cell_angle_beta     99.2357
_cell_angle_gamma    90.0158

_space_group_name_H-M_alt    "P 1"
_space_group_IT_number       1

loop_
  _space_group_symop_operation_xyz
  'x, y, z'

loop_
  _atom_site_type_symbol
  _atom_site_label
  _atom_site_symmetry_multiplicity
  _atom_site_fract_x
  _atom_site_fract_y
  _atom_site_fract_z
  _atom_site_occupancy
  Zn  Zn1       1.0  0.29221  0.14968  0.07379  1.0000
  Zn  Zn2       1.0  0.21819  0.85037  0.92625  1.0000
  Zn  Zn3       1.0  0.79132  0.85623  0.08243  1.0000
  Zn  Zn4       1.0  0.70878  0.14390  0.91750  1.0000
  Zn  Zn5       1.0  0.00386  0.50007  0.99997  1.0000
  P   P1        1.0  0.55943  0.52297  0.12605  1.0000
  P   P2        1.0  0.43267  0.47706  0.87392  1.0000
  H   H1        1.0  0.34898  0.81416  0.08092  1.0000
  H   H2        1.0  0.26791  0.18580  0.91904  1.0000
  H   H3        1.0  0.83992  0.25724  0.06225  1.0000
  H   H4        1.0  0.77726  0.74292  0.93771  1.0000
  H   H5        1.0  0.26895  0.74211  0.24310  1.0000
  H   H6        1.0  0.02516  0.25754  0.75656  1.0000
  H   H7        1.0  0.34445  0.83597  0.39401  1.0000
  H   H8        1.0  0.95032  0.16365  0.60564  1.0000
  H   H9        1.0  0.04371  0.55461  0.40359  1.0000
  H   H10       1.0  0.64054  0.44540  0.59675  1.0000
  H   H11       1.0  0.97074  0.46811  0.25309  1.0000
  H   H12       1.0  0.71732  0.53218  0.74726  1.0000
  H   H13       1.0  0.40248  0.90557  0.51348  1.0000
  H   H14       1.0  0.88922  0.09434  0.48624  1.0000
  H   H15       1.0  0.47590  0.99094  0.66523  1.0000
  H   H16       1.0  0.81105  0.00919  0.33450  1.0000
  H   H17       1.0  0.15473  0.69434  0.67495  1.0000
  H   H18       1.0  0.48109  0.30572  0.32539  1.0000
  H   H19       1.0  0.09332  0.61536  0.52317  1.0000
  H   H20       1.0  0.57128  0.38441  0.47718  1.0000
  C   C1        1.0  0.61340  0.59792  0.23714  1.0000
  C   C2        1.0  0.37569  0.40205  0.76285  1.0000
  C   C3        1.0  0.44038  0.70266  0.27846  1.0000
  C   C4        1.0  0.16145  0.29710  0.72134  1.0000
  C   C5        1.0  0.48395  0.75433  0.36465  1.0000
  C   C6        1.0  0.11921  0.24535  0.63515  1.0000
  C   C7        1.0  0.69942  0.70210  0.41271  1.0000
  C   C8        1.0  0.28697  0.29768  0.58730  1.0000
  C   C9        1.0  0.87285  0.59831  0.37000  1.0000
  C   C10       1.0  0.50308  0.40167  0.63021  1.0000
  C   C11       1.0  0.83184  0.54777  0.28401  1.0000
  C   C12       1.0  0.54763  0.45228  0.71618  1.0000
  C   C13       1.0  0.74156  0.75297  0.50457  1.0000
  C   C14       1.0  0.23759  0.24684  0.49544  1.0000
  C   C15       1.0  0.57027  0.85902  0.54746  1.0000
  C   C16       1.0  0.02326  0.14087  0.45239  1.0000
  C   C17       1.0  0.60962  0.90752  0.63355  1.0000
  C   C18       1.0  0.97659  0.09254  0.36630  1.0000
  C   C19       1.0  0.81970  0.84778  0.68020  1.0000
  C   C20       1.0  0.14027  0.15239  0.31982  1.0000
  C   C21       1.0  0.99112  0.74111  0.63885  1.0000
  C   C22       1.0  0.35332  0.25892  0.36135  1.0000
  C   C23       1.0  0.95382  0.69646  0.55277  1.0000
  C   C24       1.0  0.40201  0.30340  0.44744  1.0000
  C   C25       1.0  0.86339  0.89565  0.77248  1.0000
  C   C26       1.0  0.09173  0.10458  0.22754  1.0000
  O   O1        1.0  0.77852  0.60238  0.09301  1.0000
  O   O2        1.0  0.68489  0.39781  0.90707  1.0000
  O   O3        1.0  0.30104  0.58860  0.09307  1.0000
  O   O4        1.0  0.20724  0.41137  0.90680  1.0000
  O   O5        1.0  0.58269  0.32071  0.10560  1.0000
  O   O6        1.0  0.47645  0.67936  0.89434  1.0000
  O   O7        1.0  0.74684  0.02942  0.80607  1.0000
  O   O8        1.0  0.94091  0.97110  0.19387  1.0000
  O   O9        1.0  0.01217  0.80193  0.81041  1.0000
  O   O10       1.0  0.20339  0.19801  0.18970  1.0000
  O   O11       1.0  0.42750  0.90768  0.06012  1.0000
  O   O12       1.0  0.36738  0.09231  0.93982  1.0000
  O   O13       1.0  0.95725  0.22679  0.02062  1.0000
  O   O14       1.0  0.93632  0.77343  0.97937  1.0000
