data_image0
_chemical_formula_structural       Li8H16C16O24
_chemical_formula_sum              "Li8 H16 C16 O24"
_cell_length_a       4.98394
_cell_length_b       9.2688
_cell_length_c       12.7271
_cell_angle_alpha    90.0096
_cell_angle_beta     89.9985
_cell_angle_gamma    89.9995

_space_group_name_H-M_alt    "P 1"
_space_group_IT_number       1

loop_
  _space_group_symop_operation_xyz
  'x, y, z'

loop_
  _atom_site_type_symbol
  _atom_site_label
  _atom_site_symmetry_multiplicity
  _atom_site_fract_x
  _atom_site_fract_y
  _atom_site_fract_z
  _atom_site_occupancy
  Li  Li1       1.0  0.32570  0.75149  0.43104  1.0000
  Li  Li2       1.0  0.82570  0.74853  0.56897  1.0000
  Li  Li3       1.0  0.67432  0.24851  0.56896  1.0000
  Li  Li4       1.0  0.17431  0.25148  0.43103  1.0000
  Li  Li5       1.0  0.32582  0.24884  0.06883  1.0000
  Li  Li6       1.0  0.82581  0.25117  0.93118  1.0000
  Li  Li7       1.0  0.67417  0.75116  0.93118  1.0000
  Li  Li8       1.0  0.17416  0.74883  0.06882  1.0000
  H   H1        1.0  0.32029  0.49371  0.34430  1.0000
  H   H2        1.0  0.82031  0.00629  0.65570  1.0000
  H   H3        1.0  0.67973  0.50629  0.65570  1.0000
  H   H4        1.0  0.17969  0.99372  0.34430  1.0000
  H   H5        1.0  0.32039  0.50669  0.15557  1.0000
  H   H6        1.0  0.82037  0.99330  0.84443  1.0000
  H   H7        1.0  0.67962  0.49331  0.84442  1.0000
  H   H8        1.0  0.17960  0.00669  0.15558  1.0000
  H   H9        1.0  0.78507  0.61798  0.18627  1.0000
  H   H10       1.0  0.28509  0.88203  0.81373  1.0000
  H   H11       1.0  0.21492  0.38202  0.81373  1.0000
  H   H12       1.0  0.71490  0.11797  0.18626  1.0000
  H   H13       1.0  0.78513  0.38245  0.31363  1.0000
  H   H14       1.0  0.28514  0.11756  0.68638  1.0000
  H   H15       1.0  0.21488  0.61755  0.68638  1.0000
  H   H16       1.0  0.71488  0.88244  0.31362  1.0000
  C   C1        1.0  0.82076  0.59041  0.38087  1.0000
  C   C2        1.0  0.32075  0.90959  0.61914  1.0000
  C   C3        1.0  0.17926  0.40958  0.61914  1.0000
  C   C4        1.0  0.67924  0.09041  0.38086  1.0000
  C   C5        1.0  0.92908  0.52853  0.19152  1.0000
  C   C6        1.0  0.42910  0.97149  0.80847  1.0000
  C   C7        1.0  0.07093  0.47147  0.80848  1.0000
  C   C8        1.0  0.57087  0.02851  0.19152  1.0000
  C   C9        1.0  0.82083  0.41000  0.11905  1.0000
  C   C10       1.0  0.32082  0.09001  0.88095  1.0000
  C   C11       1.0  0.17918  0.59000  0.88095  1.0000
  C   C12       1.0  0.67916  0.90999  0.11904  1.0000
  C   C13       1.0  0.92914  0.47195  0.30836  1.0000
  C   C14       1.0  0.42912  0.02807  0.69165  1.0000
  C   C15       1.0  0.07086  0.52805  0.69164  1.0000
  C   C16       1.0  0.57089  0.97193  0.30836  1.0000
  O   O1        1.0  0.18243  0.41570  0.33653  1.0000
  O   O2        1.0  0.68242  0.08432  0.66349  1.0000
  O   O3        1.0  0.81759  0.58430  0.66347  1.0000
  O   O4        1.0  0.31758  0.91568  0.33652  1.0000
  O   O5        1.0  0.56817  0.60926  0.37833  1.0000
  O   O6        1.0  0.06817  0.89073  0.62167  1.0000
  O   O7        1.0  0.43185  0.39075  0.62166  1.0000
  O   O8        1.0  0.93184  0.10927  0.37833  1.0000
  O   O9        1.0  0.18244  0.58474  0.16340  1.0000
  O   O10       1.0  0.68242  0.91526  0.83661  1.0000
  O   O11       1.0  0.81758  0.41525  0.83659  1.0000
  O   O12       1.0  0.31755  0.08474  0.16339  1.0000
  O   O13       1.0  0.97916  0.33513  0.06315  1.0000
  O   O14       1.0  0.47915  0.16488  0.93684  1.0000
  O   O15       1.0  0.02083  0.66487  0.93685  1.0000
  O   O16       1.0  0.52082  0.83512  0.06314  1.0000
  O   O17       1.0  0.56813  0.39118  0.12155  1.0000
  O   O18       1.0  0.06811  0.10880  0.87846  1.0000
  O   O19       1.0  0.43188  0.60881  0.87845  1.0000
  O   O20       1.0  0.93183  0.89119  0.12155  1.0000
  O   O21       1.0  0.97918  0.66515  0.43680  1.0000
  O   O22       1.0  0.47920  0.83487  0.56321  1.0000
  O   O23       1.0  0.02083  0.33485  0.56321  1.0000
  O   O24       1.0  0.52081  0.16514  0.43680  1.0000
