data_image0
_chemical_formula_structural       K2Co2H6C6O12
_chemical_formula_sum              "K2 Co2 H6 C6 O12"
_cell_length_a       6.78603
_cell_length_b       7.06197
_cell_length_c       7.06198
_cell_angle_alpha    79.699
_cell_angle_beta     86.4604
_cell_angle_gamma    86.457

_space_group_name_H-M_alt    "P 1"
_space_group_IT_number       1

loop_
  _space_group_symop_operation_xyz
  'x, y, z'

loop_
  _atom_site_type_symbol
  _atom_site_label
  _atom_site_symmetry_multiplicity
  _atom_site_fract_x
  _atom_site_fract_y
  _atom_site_fract_z
  _atom_site_occupancy
  K   K1        1.0  0.24995  0.89741  0.10248  1.0000
  K   K2        1.0  0.75004  0.10259  0.89752  1.0000
  Co  Co1       1.0  0.50000  1.00000  0.50000  1.0000
  Co  Co2       1.0  0.00000  0.50000  0.00000  1.0000
  H   H1        1.0  0.48590  0.43055  0.32640  1.0000
  H   H2        1.0  0.01398  0.67348  0.56952  1.0000
  H   H3        1.0  0.51410  0.56945  0.67360  1.0000
  H   H4        1.0  0.98601  0.32652  0.43047  1.0000
  H   H5        1.0  0.24997  0.37915  0.62088  1.0000
  H   H6        1.0  0.75003  0.62084  0.37912  1.0000
  C   C1        1.0  0.36022  0.37527  0.26302  1.0000
  C   C2        1.0  0.13973  0.73693  0.62468  1.0000
  C   C3        1.0  0.63978  0.62474  0.73698  1.0000
  C   C4        1.0  0.86027  0.26306  0.37532  1.0000
  C   C5        1.0  0.25000  0.25660  0.74343  1.0000
  C   C6        1.0  0.75000  0.74340  0.25657  1.0000
  O   O1        1.0  0.34131  0.19433  0.29602  1.0000
  O   O2        1.0  0.15862  0.70396  0.80566  1.0000
  O   O3        1.0  0.65869  0.80567  0.70398  1.0000
  O   O4        1.0  0.84138  0.29604  0.19434  1.0000
  O   O5        1.0  0.24827  0.50116  0.16555  1.0000
  O   O6        1.0  0.25179  0.83443  0.49895  1.0000
  O   O7        1.0  0.75173  0.49883  0.83445  1.0000
  O   O8        1.0  0.74821  0.16557  0.50104  1.0000
  O   O9        1.0  0.37748  0.11837  0.73767  1.0000
  O   O10       1.0  0.12247  0.26241  0.88160  1.0000
  O   O11       1.0  0.62252  0.88163  0.26233  1.0000
  O   O12       1.0  0.87754  0.73760  0.11840  1.0000
