data_image0
_chemical_formula_structural       K2Co2H6C6O12
_chemical_formula_sum              "K2 Co2 H6 C6 O12"
_cell_length_a       7.02637
_cell_length_b       7.02965
_cell_length_c       8.49903
_cell_angle_alpha    89.9999
_cell_angle_beta     90.0972
_cell_angle_gamma    120.016

_space_group_name_H-M_alt    "P 1"
_space_group_IT_number       1

loop_
  _space_group_symop_operation_xyz
  'x, y, z'

loop_
  _atom_site_type_symbol
  _atom_site_label
  _atom_site_symmetry_multiplicity
  _atom_site_fract_x
  _atom_site_fract_y
  _atom_site_fract_z
  _atom_site_occupancy
  K   K1        1.0  0.99955  0.99932  0.25016  1.0000
  K   K2        1.0  0.00046  0.99979  0.74986  1.0000
  Co  Co1       1.0  0.66637  0.33306  0.25008  1.0000
  Co  Co2       1.0  0.33363  0.66670  0.74991  1.0000
  H   H1        1.0  0.59752  0.99876  0.00162  1.0000
  H   H2        1.0  0.00003  0.59776  0.00002  1.0000
  H   H3        1.0  0.40248  0.40124  0.99840  1.0000
  H   H4        1.0  0.40409  0.00290  0.50091  1.0000
  H   H5        1.0  1.00000  0.40185  0.49999  1.0000
  H   H6        1.0  0.59592  0.59883  0.49908  1.0000
  C   C1        1.0  0.44105  0.99984  0.00046  1.0000
  C   C2        1.0  0.00000  0.44072  0.00001  1.0000
  C   C3        1.0  0.55894  0.55877  0.99954  1.0000
  C   C4        1.0  0.56020  0.00102  0.50028  1.0000
  C   C5        1.0  1.00000  0.55877  0.49999  1.0000
  C   C6        1.0  0.43981  0.44083  0.49971  1.0000
  O   O1        1.0  0.40530  0.10042  0.11066  1.0000
  O   O2        1.0  0.90043  0.30562  0.11098  1.0000
  O   O3        1.0  0.69358  0.59413  0.11110  1.0000
  O   O4        1.0  0.59526  0.90027  0.61077  1.0000
  O   O5        1.0  0.10092  0.69481  0.61044  1.0000
  O   O6        1.0  0.30499  0.40492  0.61097  1.0000
  O   O7        1.0  0.09955  0.40519  0.88901  1.0000
  O   O8        1.0  0.30642  0.90055  0.88889  1.0000
  O   O9        1.0  0.59468  0.69511  0.88935  1.0000
  O   O10       1.0  0.89910  0.59390  0.38954  1.0000
  O   O11       1.0  0.69501  0.09992  0.38902  1.0000
  O   O12       1.0  0.40475  0.30502  0.38923  1.0000
