data_image0
_chemical_formula_structural       Li4H20C20N8O12
_chemical_formula_sum              "Li4 H20 C20 N8 O12"
_cell_length_a       8.06513
_cell_length_b       8.08598
_cell_length_c       9.53205
_cell_angle_alpha    90.0001
_cell_angle_beta     90.0004
_cell_angle_gamma    97.0994

_space_group_name_H-M_alt    "P 1"
_space_group_IT_number       1

loop_
  _space_group_symop_operation_xyz
  'x, y, z'

loop_
  _atom_site_type_symbol
  _atom_site_label
  _atom_site_symmetry_multiplicity
  _atom_site_fract_x
  _atom_site_fract_y
  _atom_site_fract_z
  _atom_site_occupancy
  Li  Li1       1.0  0.93850  0.88786  0.39875  1.0000
  Li  Li2       1.0  0.56151  0.11214  0.89875  1.0000
  Li  Li3       1.0  0.06150  0.11213  0.60125  1.0000
  Li  Li4       1.0  0.43850  0.88786  0.10125  1.0000
  H   H1        1.0  0.67947  0.36483  0.62045  1.0000
  H   H2        1.0  0.82054  0.63518  0.12045  1.0000
  H   H3        1.0  0.32052  0.63517  0.37955  1.0000
  H   H4        1.0  0.17946  0.36482  0.87955  1.0000
  H   H5        1.0  0.44020  0.27460  0.15711  1.0000
  H   H6        1.0  0.05980  0.72540  0.65711  1.0000
  H   H7        1.0  0.55980  0.72540  0.84289  1.0000
  H   H8        1.0  0.94020  0.27460  0.34289  1.0000
  H   H9        1.0  0.42769  0.14559  0.59790  1.0000
  H   H10       1.0  0.07232  0.85442  0.09790  1.0000
  H   H11       1.0  0.57231  0.85441  0.40210  1.0000
  H   H12       1.0  0.92769  0.14558  0.90210  1.0000
  H   H13       1.0  0.03607  0.59402  0.34000  1.0000
  H   H14       1.0  0.46393  0.40598  0.84000  1.0000
  H   H15       1.0  0.96393  0.40598  0.66000  1.0000
  H   H16       1.0  0.53607  0.59402  0.16000  1.0000
  H   H17       1.0  0.85667  0.57656  0.40904  1.0000
  H   H18       1.0  0.64333  0.42344  0.90903  1.0000
  H   H19       1.0  0.14333  0.42344  0.59096  1.0000
  H   H20       1.0  0.35667  0.57656  0.09096  1.0000
  C   C1        1.0  0.41465  0.18534  0.37328  1.0000
  C   C2        1.0  0.08535  0.81467  0.87329  1.0000
  C   C3        1.0  0.58534  0.81466  0.62671  1.0000
  C   C4        1.0  0.91465  0.18533  0.12671  1.0000
  C   C5        1.0  0.27358  0.04931  0.34278  1.0000
  C   C6        1.0  0.22642  0.95070  0.84277  1.0000
  C   C7        1.0  0.72642  0.95068  0.65722  1.0000
  C   C8        1.0  0.77359  0.04931  0.15723  1.0000
  C   C9        1.0  0.61663  0.33916  0.52006  1.0000
  C   C10       1.0  0.88338  0.66085  0.02006  1.0000
  C   C11       1.0  0.38337  0.66084  0.47995  1.0000
  C   C12       1.0  0.11662  0.33915  0.97994  1.0000
  C   C13       1.0  0.48481  0.28920  0.26495  1.0000
  C   C14       1.0  0.01519  0.71080  0.76495  1.0000
  C   C15       1.0  0.51519  0.71080  0.73505  1.0000
  C   C16       1.0  0.98481  0.28920  0.23505  1.0000
  C   C17       1.0  0.48034  0.21519  0.50672  1.0000
  C   C18       1.0  0.01966  0.78482  0.00672  1.0000
  C   C19       1.0  0.51966  0.78481  0.49328  1.0000
  C   C20       1.0  0.98034  0.21519  0.99328  1.0000
  N   N1        1.0  0.60633  0.41443  0.28574  1.0000
  N   N2        1.0  0.89366  0.58557  0.78574  1.0000
  N   N3        1.0  0.39366  0.58556  0.71426  1.0000
  N   N4        1.0  0.10633  0.41443  0.21426  1.0000
  N   N5        1.0  0.67557  0.43630  0.41343  1.0000
  N   N6        1.0  0.82444  0.56370  0.91343  1.0000
  N   N7        1.0  0.32443  0.56370  0.58657  1.0000
  N   N8        1.0  0.17557  0.43630  0.08656  1.0000
  O   O1        1.0  0.14920  0.03652  0.42536  1.0000
  O   O2        1.0  0.35080  0.96348  0.92537  1.0000
  O   O3        1.0  0.85079  0.96348  0.57464  1.0000
  O   O4        1.0  0.64920  0.03652  0.07463  1.0000
  O   O5        1.0  0.28895  0.95874  0.23722  1.0000
  O   O6        1.0  0.21106  0.04126  0.73722  1.0000
  O   O7        1.0  0.71105  0.04125  0.76278  1.0000
  O   O8        1.0  0.78894  0.95874  0.26278  1.0000
  O   O9        1.0  0.96084  0.65687  0.39384  1.0000
  O   O10       1.0  0.53916  0.34313  0.89384  1.0000
  O   O11       1.0  0.03916  0.34313  0.60616  1.0000
  O   O12       1.0  0.46084  0.65687  0.10616  1.0000
