data_image0
_chemical_formula_structural       Rb4H12C28N8O28
_chemical_formula_sum              "Rb4 H12 C28 N8 O28"
_cell_length_a       7.33099
_cell_length_b       7.70812
_cell_length_c       16.9094
_cell_angle_alpha    95.9113
_cell_angle_beta     90.0009
_cell_angle_gamma    89.9996

_space_group_name_H-M_alt    "P 1"
_space_group_IT_number       1

loop_
  _space_group_symop_operation_xyz
  'x, y, z'

loop_
  _atom_site_type_symbol
  _atom_site_label
  _atom_site_symmetry_multiplicity
  _atom_site_fract_x
  _atom_site_fract_y
  _atom_site_fract_z
  _atom_site_occupancy
  Rb  Rb1       1.0  0.84106  0.38715  0.79763  1.0000
  Rb  Rb2       1.0  0.34106  0.61285  0.70237  1.0000
  Rb  Rb3       1.0  0.15894  0.61285  0.20237  1.0000
  Rb  Rb4       1.0  0.65893  0.38715  0.29763  1.0000
  H   H1        1.0  0.41900  0.30951  0.03664  1.0000
  H   H2        1.0  0.91900  0.69049  0.46336  1.0000
  H   H3        1.0  0.58101  0.69048  0.96336  1.0000
  H   H4        1.0  0.08099  0.30951  0.53664  1.0000
  H   H5        1.0  0.18915  0.01966  0.82792  1.0000
  H   H6        1.0  0.68914  0.98033  0.67208  1.0000
  H   H7        1.0  0.81086  0.98035  0.17208  1.0000
  H   H8        1.0  0.31086  0.01966  0.32792  1.0000
  H   H9        1.0  0.08353  0.65908  0.99764  1.0000
  H   H10       1.0  0.58353  0.34092  0.50235  1.0000
  H   H11       1.0  0.91646  0.34092  0.00235  1.0000
  H   H12       1.0  0.41647  0.65908  0.49765  1.0000
  C   C1        1.0  0.09357  0.73378  0.89328  1.0000
  C   C2        1.0  0.59356  0.26620  0.60671  1.0000
  C   C3        1.0  0.90643  0.26622  0.10671  1.0000
  C   C4        1.0  0.40644  0.73379  0.39328  1.0000
  C   C5        1.0  0.17778  0.89372  0.93521  1.0000
  C   C6        1.0  0.67778  0.10627  0.56479  1.0000
  C   C7        1.0  0.82223  0.10628  0.06479  1.0000
  C   C8        1.0  0.32222  0.89373  0.43521  1.0000
  C   C9        1.0  0.20976  0.90406  0.02054  1.0000
  C   C10       1.0  0.70976  0.09593  0.47946  1.0000
  C   C11       1.0  0.79024  0.09594  0.97946  1.0000
  C   C12       1.0  0.29024  0.90407  0.52054  1.0000
  C   C13       1.0  0.29946  0.06191  0.05506  1.0000
  C   C14       1.0  0.79946  0.93809  0.44494  1.0000
  C   C15       1.0  0.70055  0.93809  0.94494  1.0000
  C   C16       1.0  0.20054  0.06191  0.55506  1.0000
  C   C17       1.0  0.34913  0.19405  0.00912  1.0000
  C   C18       1.0  0.84913  0.80595  0.49088  1.0000
  C   C19       1.0  0.65088  0.80595  0.99088  1.0000
  C   C20       1.0  0.15086  0.19405  0.50912  1.0000
  C   C21       1.0  0.30619  0.17873  0.92859  1.0000
  C   C22       1.0  0.80619  0.82126  0.57141  1.0000
  C   C23       1.0  0.69382  0.82127  0.07141  1.0000
  C   C24       1.0  0.19380  0.17874  0.42859  1.0000
  C   C25       1.0  0.21983  0.02988  0.89136  1.0000
  C   C26       1.0  0.71983  0.97011  0.60863  1.0000
  C   C27       1.0  0.78017  0.97012  0.10863  1.0000
  C   C28       1.0  0.28017  0.02989  0.39137  1.0000
  N   N1        1.0  0.34567  0.08866  0.13887  1.0000
  N   N2        1.0  0.84567  0.91134  0.36113  1.0000
  N   N3        1.0  0.65432  0.91134  0.86113  1.0000
  N   N4        1.0  0.15432  0.08866  0.63887  1.0000
  N   N5        1.0  0.35222  0.31951  0.88206  1.0000
  N   N6        1.0  0.85222  0.68049  0.61794  1.0000
  N   N7        1.0  0.64778  0.68051  0.11794  1.0000
  N   N8        1.0  0.14777  0.31950  0.38206  1.0000
  O   O1        1.0  0.06777  0.71503  0.82061  1.0000
  O   O2        1.0  0.56776  0.28496  0.67939  1.0000
  O   O3        1.0  0.93224  0.28498  0.17939  1.0000
  O   O4        1.0  0.43224  0.71504  0.32062  1.0000
  O   O5        1.0  0.04552  0.61040  0.93892  1.0000
  O   O6        1.0  0.54551  0.38959  0.56108  1.0000
  O   O7        1.0  0.95448  0.38960  0.06108  1.0000
  O   O8        1.0  0.45449  0.61041  0.43892  1.0000
  O   O9        1.0  0.30691  0.97476  0.18313  1.0000
  O   O10       1.0  0.80691  0.02524  0.31688  1.0000
  O   O11       1.0  0.69308  0.02523  0.81687  1.0000
  O   O12       1.0  0.19308  0.97476  0.68312  1.0000
  O   O13       1.0  0.42685  0.22674  0.16311  1.0000
  O   O14       1.0  0.92685  0.77326  0.33689  1.0000
  O   O15       1.0  0.57315  0.77325  0.83689  1.0000
  O   O16       1.0  0.07314  0.22674  0.66311  1.0000
  O   O17       1.0  0.47353  0.42430  0.90722  1.0000
  O   O18       1.0  0.97352  0.57570  0.59278  1.0000
  O   O19       1.0  0.52649  0.57570  0.09278  1.0000
  O   O20       1.0  0.02648  0.42430  0.40722  1.0000
  O   O21       1.0  0.26839  0.32858  0.81839  1.0000
  O   O22       1.0  0.76840  0.67142  0.68161  1.0000
  O   O23       1.0  0.73159  0.67143  0.18161  1.0000
  O   O24       1.0  0.23159  0.32858  0.31839  1.0000
  O   O25       1.0  0.15908  0.77920  0.05976  1.0000
  O   O26       1.0  0.65908  0.22079  0.44024  1.0000
  O   O27       1.0  0.84093  0.22079  0.94024  1.0000
  O   O28       1.0  0.34092  0.77921  0.55976  1.0000
