data_image0
_chemical_formula_structural       Zn2H20C32S4N8O8
_chemical_formula_sum              "Zn2 H20 C32 S4 N8 O8"
_cell_length_a       7.59752
_cell_length_b       8.63285
_cell_length_c       13.1471
_cell_angle_alpha    90.0037
_cell_angle_beta     93.1297
_cell_angle_gamma    90.0045

_space_group_name_H-M_alt    "P 1"
_space_group_IT_number       1

loop_
  _space_group_symop_operation_xyz
  'x, y, z'

loop_
  _atom_site_type_symbol
  _atom_site_label
  _atom_site_symmetry_multiplicity
  _atom_site_fract_x
  _atom_site_fract_y
  _atom_site_fract_z
  _atom_site_occupancy
  Zn  Zn1       1.0  0.75000  0.15580  0.75000  1.0000
  Zn  Zn2       1.0  0.25001  0.84420  0.24999  1.0000
  H   H1        1.0  0.73041  0.06771  0.05143  1.0000
  H   H2        1.0  0.76962  0.06767  0.44856  1.0000
  H   H3        1.0  0.26964  0.93227  0.94857  1.0000
  H   H4        1.0  0.23037  0.93234  0.55144  1.0000
  H   H5        1.0  0.54133  0.66434  0.17108  1.0000
  H   H6        1.0  0.95867  0.66433  0.32893  1.0000
  H   H7        1.0  0.45867  0.33564  0.82891  1.0000
  H   H8        1.0  0.04132  0.33568  0.67107  1.0000
  H   H9        1.0  0.68458  0.44659  0.01615  1.0000
  H   H10       1.0  0.81543  0.44656  0.48385  1.0000
  H   H11       1.0  0.31541  0.55341  0.98384  1.0000
  H   H12       1.0  0.18455  0.55344  0.51615  1.0000
  H   H13       1.0  0.01550  0.69349  0.81563  1.0000
  H   H14       1.0  0.48450  0.69346  0.68437  1.0000
  H   H15       1.0  0.98453  0.30649  0.18439  1.0000
  H   H16       1.0  0.51547  0.30654  0.31563  1.0000
  H   H17       1.0  0.95154  0.94722  0.90061  1.0000
  H   H18       1.0  0.54845  0.94718  0.59938  1.0000
  H   H19       1.0  0.04852  0.05279  0.09940  1.0000
  H   H20       1.0  0.45153  0.05283  0.40061  1.0000
  C   C1        1.0  0.59977  0.89203  0.12924  1.0000
  C   C2        1.0  0.90022  0.89201  0.37076  1.0000
  C   C3        1.0  0.40023  0.10797  0.87077  1.0000
  C   C4        1.0  0.09976  0.10800  0.62923  1.0000
  C   C5        1.0  0.78152  0.83499  0.00492  1.0000
  C   C6        1.0  0.71850  0.83495  0.49509  1.0000
  C   C7        1.0  0.21850  0.16502  0.99509  1.0000
  C   C8        1.0  0.28149  0.16505  0.50491  1.0000
  C   C9        1.0  0.70890  0.69544  0.03996  1.0000
  C   C10       1.0  0.79112  0.69540  0.46004  1.0000
  C   C11       1.0  0.29113  0.30455  0.96005  1.0000
  C   C12       1.0  0.20887  0.30460  0.53996  1.0000
  C   C13       1.0  0.74261  0.55507  0.99240  1.0000
  C   C14       1.0  0.75740  0.55504  0.50761  1.0000
  C   C15       1.0  0.25743  0.44491  0.00760  1.0000
  C   C16       1.0  0.24260  0.44497  0.49239  1.0000
  C   C17       1.0  0.85327  0.55880  0.91044  1.0000
  C   C18       1.0  0.64674  0.55876  0.58956  1.0000
  C   C19       1.0  0.14677  0.44120  0.08955  1.0000
  C   C20       1.0  0.35323  0.44125  0.41043  1.0000
  C   C21       1.0  0.93101  0.69831  0.87982  1.0000
  C   C22       1.0  0.56900  0.69827  0.62019  1.0000
  C   C23       1.0  0.06902  0.30167  0.12020  1.0000
  C   C24       1.0  0.43097  0.30173  0.37980  1.0000
  C   C25       1.0  0.89661  0.83859  0.92646  1.0000
  C   C26       1.0  0.60339  0.83854  0.57354  1.0000
  C   C27       1.0  0.10342  0.16140  0.07355  1.0000
  C   C28       1.0  0.39658  0.16146  0.42645  1.0000
  C   C29       1.0  0.88427  0.41749  0.84742  1.0000
  C   C30       1.0  0.61572  0.41746  0.65258  1.0000
  C   C31       1.0  0.11571  0.58253  0.15258  1.0000
  C   C32       1.0  0.38426  0.58254  0.34742  1.0000
  S   S1        1.0  0.48452  0.00383  0.20813  1.0000
  S   S2        1.0  0.01549  0.00381  0.29188  1.0000
  S   S3        1.0  0.51551  0.99616  0.79187  1.0000
  S   S4        1.0  0.98452  0.99621  0.70813  1.0000
  N   N1        1.0  0.71033  0.95251  0.06093  1.0000
  N   N2        1.0  0.78967  0.95247  0.43907  1.0000
  N   N3        1.0  0.28970  0.04748  0.93908  1.0000
  N   N4        1.0  0.21033  0.04753  0.56093  1.0000
  N   N5        1.0  0.60119  0.73618  0.11822  1.0000
  N   N6        1.0  0.89881  0.73615  0.38180  1.0000
  N   N7        1.0  0.39879  0.26385  0.88180  1.0000
  N   N8        1.0  0.10118  0.26385  0.61820  1.0000
  O   O1        1.0  0.98037  0.43081  0.77288  1.0000
  O   O2        1.0  0.51960  0.43079  0.72711  1.0000
  O   O3        1.0  0.01960  0.56918  0.22711  1.0000
  O   O4        1.0  0.48038  0.56923  0.27289  1.0000
  O   O5        1.0  0.80298  0.29142  0.87121  1.0000
  O   O6        1.0  0.69701  0.29142  0.62879  1.0000
  O   O7        1.0  0.19704  0.70856  0.12878  1.0000
  O   O8        1.0  0.30298  0.70858  0.37121  1.0000
