data_image0
_chemical_formula_structural       Cu2H32C26S2N8O8
_chemical_formula_sum              "Cu2 H32 C26 S2 N8 O8"
_cell_length_a       5.21455
_cell_length_b       8.59174
_cell_length_c       16.6434
_cell_angle_alpha    80.3505
_cell_angle_beta     87.543
_cell_angle_gamma    78.7249

_space_group_name_H-M_alt    "P 1"
_space_group_IT_number       1

loop_
  _space_group_symop_operation_xyz
  'x, y, z'

loop_
  _atom_site_type_symbol
  _atom_site_label
  _atom_site_symmetry_multiplicity
  _atom_site_fract_x
  _atom_site_fract_y
  _atom_site_fract_z
  _atom_site_occupancy
  Cu  Cu1       1.0  0.48877  0.34375  0.65568  1.0000
  Cu  Cu2       1.0  0.51123  0.65625  0.34432  1.0000
  H   H1        1.0  0.60490  0.74608  0.69810  1.0000
  H   H2        1.0  0.39509  0.25390  0.30189  1.0000
  H   H3        1.0  0.52073  0.78817  0.84258  1.0000
  H   H4        1.0  0.47925  0.21183  0.15742  1.0000
  H   H5        1.0  0.85839  0.65669  0.94732  1.0000
  H   H6        1.0  0.14162  0.34333  0.05268  1.0000
  H   H7        1.0  0.25681  0.47336  0.90874  1.0000
  H   H8        1.0  0.74320  0.52665  0.09126  1.0000
  H   H9        1.0  0.78664  0.19115  0.04017  1.0000
  H   H10       1.0  0.21332  0.80884  0.95983  1.0000
  H   H11       1.0  0.49955  0.19937  0.98144  1.0000
  H   H12       1.0  0.50042  0.80063  0.01857  1.0000
  H   H13       1.0  0.63943  0.37321  0.97732  1.0000
  H   H14       1.0  0.36054  0.62678  0.02269  1.0000
  H   H15       1.0  0.10305  0.89875  0.75911  1.0000
  H   H16       1.0  0.89696  0.10124  0.24089  1.0000
  H   H17       1.0  0.17282  0.98646  0.84462  1.0000
  H   H18       1.0  0.82717  0.01353  0.15538  1.0000
  H   H19       1.0  0.27529  0.06080  0.74567  1.0000
  H   H20       1.0  0.72469  0.93921  0.25433  1.0000
  H   H21       1.0  0.93210  0.94028  0.65209  1.0000
  H   H22       1.0  0.06791  0.05971  0.34791  1.0000
  H   H23       1.0  0.02685  0.12274  0.60464  1.0000
  H   H24       1.0  0.97318  0.87725  0.39537  1.0000
  H   H25       1.0  0.74131  0.04383  0.51215  1.0000
  H   H26       1.0  0.25871  0.95618  0.48784  1.0000
  H   H27       1.0  0.50444  0.01793  0.59056  1.0000
  H   H28       1.0  0.49559  0.98207  0.40944  1.0000
  H   H29       1.0  0.35381  0.27382  0.51821  1.0000
  H   H30       1.0  0.64620  0.72618  0.48179  1.0000
  H   H31       1.0  0.63983  0.32500  0.51143  1.0000
  H   H32       1.0  0.36018  0.67500  0.48858  1.0000
  C   C1        1.0  0.97457  0.58773  0.72318  1.0000
  C   C2        1.0  0.02542  0.41227  0.27683  1.0000
  C   C3        1.0  0.74545  0.68707  0.74556  1.0000
  C   C4        1.0  0.25458  0.31291  0.25445  1.0000
  C   C5        1.0  0.69900  0.71066  0.82591  1.0000
  C   C6        1.0  0.30099  0.28934  0.17408  1.0000
  C   C7        1.0  0.88691  0.63514  0.88450  1.0000
  C   C8        1.0  0.11309  0.36488  0.11549  1.0000
  C   C9        1.0  0.11206  0.53421  0.86323  1.0000
  C   C10       1.0  0.88796  0.46580  0.13678  1.0000
  C   C11       1.0  0.16068  0.50409  0.78264  1.0000
  C   C12       1.0  0.83934  0.49590  0.21736  1.0000
  C   C13       1.0  0.74739  0.21764  0.83168  1.0000
  C   C14       1.0  0.25261  0.78235  0.16832  1.0000
  C   C15       1.0  0.86578  0.19395  0.91402  1.0000
  C   C16       1.0  0.13419  0.80606  0.08599  1.0000
  C   C17       1.0  0.68467  0.24136  0.98285  1.0000
  C   C18       1.0  0.31530  0.75863  0.01716  1.0000
  C   C19       1.0  0.86534  0.13040  0.76713  1.0000
  C   C20       1.0  0.13466  0.86960  0.23287  1.0000
  C   C21       1.0  0.11763  0.01059  0.78072  1.0000
  C   C22       1.0  0.88236  0.98942  0.21928  1.0000
  C   C23       1.0  0.86032  0.06888  0.63105  1.0000
  C   C24       1.0  0.13970  0.93112  0.36895  1.0000
  C   C25       1.0  0.65300  0.08915  0.56688  1.0000
  C   C26       1.0  0.34701  0.91085  0.43312  1.0000
  S   S1        1.0  0.00992  0.57608  0.61740  1.0000
  S   S2        1.0  0.99008  0.42392  0.38260  1.0000
  N   N1        1.0  0.38709  0.39211  0.76414  1.0000
  N   N2        1.0  0.61292  0.60789  0.23586  1.0000
  N   N3        1.0  0.52620  0.32597  0.82775  1.0000
  N   N4        1.0  0.47378  0.67403  0.17224  1.0000
  N   N5        1.0  0.74656  0.15318  0.69737  1.0000
  N   N6        1.0  0.25344  0.84681  0.30263  1.0000
  N   N7        1.0  0.52500  0.25951  0.54951  1.0000
  N   N8        1.0  0.47500  0.74050  0.45049  1.0000
  O   O1        1.0  0.10210  0.14345  0.92686  1.0000
  O   O2        1.0  0.89789  0.85658  0.07315  1.0000
  O   O3        1.0  0.29892  0.56021  0.60142  1.0000
  O   O4        1.0  0.70108  0.43980  0.39858  1.0000
  O   O5        1.0  0.91550  0.43353  0.60347  1.0000
  O   O6        1.0  0.08452  0.56647  0.39653  1.0000
  O   O7        1.0  0.87141  0.72845  0.57314  1.0000
  O   O8        1.0  0.12859  0.27155  0.42686  1.0000
