data_image0
_chemical_formula_structural       Li2P2H48C38O2
_chemical_formula_sum              "Li2 P2 H48 C38 O2"
_cell_length_a       8.99883
_cell_length_b       10.4988
_cell_length_c       10.6421
_cell_angle_alpha    60.4445
_cell_angle_beta     87.7461
_cell_angle_gamma    85.427

_space_group_name_H-M_alt    "P 1"
_space_group_IT_number       1

loop_
  _space_group_symop_operation_xyz
  'x, y, z'

loop_
  _atom_site_type_symbol
  _atom_site_label
  _atom_site_symmetry_multiplicity
  _atom_site_fract_x
  _atom_site_fract_y
  _atom_site_fract_z
  _atom_site_occupancy
  Li  Li1       1.0  0.57475  0.44056  0.89242  1.0000
  Li  Li2       1.0  0.07476  0.33298  0.10758  1.0000
  P   P1        1.0  0.33996  0.37266  0.81971  1.0000
  P   P2        1.0  0.83996  0.19238  0.18029  1.0000
  H   H1        1.0  0.06804  0.36027  0.85968  1.0000
  H   H2        1.0  0.56804  0.21994  0.14032  1.0000
  H   H3        1.0  0.23907  0.56975  0.91918  1.0000
  H   H4        1.0  0.73907  0.48893  0.08082  1.0000
  H   H5        1.0  0.89840  0.54780  0.91453  1.0000
  H   H6        1.0  0.39840  0.46233  0.08547  1.0000
  H   H7        1.0  0.00019  0.66809  0.95883  1.0000
  H   H8        1.0  0.50018  0.62692  0.04117  1.0000
  H   H9        1.0  0.53422  0.09870  0.97707  1.0000
  H   H10       1.0  0.03423  0.07577  0.02293  1.0000
  H   H11       1.0  0.52856  0.85204  0.00267  1.0000
  H   H12       1.0  0.02856  0.85471  0.99733  1.0000
  H   H13       1.0  0.32743  0.79781  0.88441  1.0000
  H   H14       1.0  0.82743  0.68222  0.11559  1.0000
  H   H15       1.0  0.13410  0.99508  0.73669  1.0000
  H   H16       1.0  0.63410  0.73177  0.26331  1.0000
  H   H17       1.0  0.14282  0.24372  0.70763  1.0000
  H   H18       1.0  0.64282  0.95135  0.29237  1.0000
  H   H19       1.0  0.13964  0.61999  0.61837  1.0000
  H   H20       1.0  0.63964  0.23836  0.38163  1.0000
  H   H21       1.0  0.12801  0.76925  0.34906  1.0000
  H   H22       1.0  0.62801  0.11831  0.65094  1.0000
  H   H23       1.0  0.31211  0.71378  0.19937  1.0000
  H   H24       1.0  0.81211  0.91315  0.80063  1.0000
  H   H25       1.0  0.50134  0.50380  0.31711  1.0000
  H   H26       1.0  0.00134  0.82091  0.68289  1.0000
  H   H27       1.0  0.51258  0.35484  0.58517  1.0000
  H   H28       1.0  0.01258  0.94002  0.41483  1.0000
  H   H29       1.0  0.88584  0.53852  0.62861  1.0000
  H   H30       1.0  0.38584  0.16712  0.37139  1.0000
  H   H31       1.0  0.73876  0.50665  0.54183  1.0000
  H   H32       1.0  0.23876  0.04848  0.45817  1.0000
  H   H33       1.0  0.83902  0.29975  0.85739  1.0000
  H   H34       1.0  0.33901  0.15714  0.14261  1.0000
  H   H35       1.0  0.88259  0.26984  0.70877  1.0000
  H   H36       1.0  0.38259  0.97861  0.29123  1.0000
  H   H37       1.0  0.69554  0.26908  0.76777  1.0000
  H   H38       1.0  0.19554  0.03686  0.23223  1.0000
  H   H39       1.0  0.57425  0.69584  0.50878  1.0000
  H   H40       1.0  0.07425  0.20462  0.49122  1.0000
  H   H41       1.0  0.72380  0.76386  0.55973  1.0000
  H   H42       1.0  0.22380  0.32359  0.44027  1.0000
  H   H43       1.0  0.41316  0.70278  0.70230  1.0000
  H   H44       1.0  0.91316  0.40508  0.29770  1.0000
  H   H45       1.0  0.48180  0.87825  0.58777  1.0000
  H   H46       1.0  0.98180  0.46602  0.41223  1.0000
  H   H47       1.0  0.56316  0.76330  0.76016  1.0000
  H   H48       1.0  0.06316  0.52346  0.23983  1.0000
  C   C1        1.0  0.16424  0.40195  0.88437  1.0000
  C   C2        1.0  0.66424  0.28632  0.11563  1.0000
  C   C3        1.0  0.13841  0.52288  0.90908  1.0000
  C   C4        1.0  0.63841  0.43196  0.09092  1.0000
  C   C5        1.0  0.00418  0.57856  0.93483  1.0000
  C   C6        1.0  0.50418  0.51339  0.06517  1.0000
  C   C7        1.0  0.33748  0.18796  0.84183  1.0000
  C   C8        1.0  0.83748  0.02978  0.15818  1.0000
  C   C9        1.0  0.44610  0.07661  0.92410  1.0000
  C   C10       1.0  0.94611  0.00070  0.07590  1.0000
  C   C11       1.0  0.44251  0.93685  0.93905  1.0000
  C   C12       1.0  0.94251  0.87590  0.06095  1.0000
  C   C13       1.0  0.33020  0.90684  0.87254  1.0000
  C   C14       1.0  0.83020  0.77938  0.12746  1.0000
  C   C15       1.0  0.22186  0.01745  0.78952  1.0000
  C   C16       1.0  0.72186  0.80698  0.21048  1.0000
  C   C17       1.0  0.22617  0.15685  0.77400  1.0000
  C   C18       1.0  0.72617  0.93085  0.22601  1.0000
  C   C19       1.0  0.32760  0.47863  0.62008  1.0000
  C   C20       1.0  0.82760  0.09871  0.37992  1.0000
  C   C21       1.0  0.22010  0.59620  0.55186  1.0000
  C   C22       1.0  0.72010  0.14805  0.44814  1.0000
  C   C23       1.0  0.21438  0.68030  0.40123  1.0000
  C   C24       1.0  0.71438  0.08153  0.59877  1.0000
  C   C25       1.0  0.31678  0.64846  0.31683  1.0000
  C   C26       1.0  0.81679  0.96529  0.68317  1.0000
  C   C27       1.0  0.42431  0.53112  0.38361  1.0000
  C   C28       1.0  0.92431  0.91473  0.61639  1.0000
  C   C29       1.0  0.42955  0.44733  0.53394  1.0000
  C   C30       1.0  0.92955  0.98127  0.46606  1.0000
  C   C31       1.0  0.78008  0.48505  0.64740  1.0000
  C   C32       1.0  0.28008  0.13245  0.35261  1.0000
  C   C33       1.0  0.80051  0.32205  0.75133  1.0000
  C   C34       1.0  0.30051  0.07338  0.24867  1.0000
  C   C35       1.0  0.62490  0.69926  0.59976  1.0000
  C   C36       1.0  0.12490  0.29902  0.40023  1.0000
  C   C37       1.0  0.51429  0.76375  0.66716  1.0000
  C   C38       1.0  0.01429  0.43091  0.33284  1.0000
  O   O1        1.0  0.67259  0.55076  0.70620  1.0000
  O   O2        1.0  0.17259  0.25695  0.29381  1.0000
