data_image0
_chemical_formula_structural       Hg4H24C28Br8N8
_chemical_formula_sum              "Hg4 H24 C28 Br8 N8"
_cell_length_a       7.4631
_cell_length_b       9.16144
_cell_length_c       15.6686
_cell_angle_alpha    106.457
_cell_angle_beta     93.5318
_cell_angle_gamma    107.726

_space_group_name_H-M_alt    "P 1"
_space_group_IT_number       1

loop_
  _space_group_symop_operation_xyz
  'x, y, z'

loop_
  _atom_site_type_symbol
  _atom_site_label
  _atom_site_symmetry_multiplicity
  _atom_site_fract_x
  _atom_site_fract_y
  _atom_site_fract_z
  _atom_site_occupancy
  Hg  Hg1       1.0  0.14635  0.06286  0.63533  1.0000
  Hg  Hg2       1.0  0.85364  0.93714  0.36467  1.0000
  Hg  Hg3       1.0  0.38258  0.36139  0.87485  1.0000
  Hg  Hg4       1.0  0.61742  0.63862  0.12515  1.0000
  H   H1        1.0  0.85976  0.75517  0.67705  1.0000
  H   H2        1.0  0.14024  0.24483  0.32295  1.0000
  H   H3        1.0  0.88440  0.60384  0.72321  1.0000
  H   H4        1.0  0.11560  0.39616  0.27679  1.0000
  H   H5        1.0  0.04666  0.43182  0.64769  1.0000
  H   H6        1.0  0.95333  0.56818  0.35230  1.0000
  H   H7        1.0  0.25166  0.36744  0.53235  1.0000
  H   H8        1.0  0.74834  0.63256  0.46765  1.0000
  H   H9        1.0  0.41168  0.58199  0.46229  1.0000
  H   H10       1.0  0.58832  0.41801  0.53771  1.0000
  H   H11       1.0  0.35419  0.84420  0.51014  1.0000
  H   H12       1.0  0.64580  0.15580  0.48986  1.0000
  H   H13       1.0  0.03226  0.70965  0.88711  1.0000
  H   H14       1.0  0.96774  0.29034  0.11289  1.0000
  H   H15       1.0  0.48634  0.25775  0.02489  1.0000
  H   H16       1.0  0.51366  0.74225  0.97510  1.0000
  H   H17       1.0  0.60724  0.35102  0.18819  1.0000
  H   H18       1.0  0.39277  0.64899  0.81181  1.0000
  H   H19       1.0  0.48050  0.17413  0.28173  1.0000
  H   H20       1.0  0.51951  0.82588  0.71827  1.0000
  H   H21       1.0  0.23102  0.90527  0.20924  1.0000
  H   H22       1.0  0.76899  0.09474  0.79076  1.0000
  H   H23       1.0  0.10162  0.81601  0.04793  1.0000
  H   H24       1.0  0.89839  0.18399  0.95207  1.0000
  C   C1        1.0  0.96277  0.71093  0.70588  1.0000
  C   C2        1.0  0.03723  0.28907  0.29412  1.0000
  C   C3        1.0  0.09261  0.67093  0.63901  1.0000
  C   C4        1.0  0.90739  0.32907  0.36099  1.0000
  C   C5        1.0  0.11707  0.52033  0.61580  1.0000
  C   C6        1.0  0.88292  0.47967  0.38420  1.0000
  C   C7        1.0  0.23332  0.48556  0.55207  1.0000
  C   C8        1.0  0.76667  0.51444  0.44793  1.0000
  C   C9        1.0  0.32158  0.60274  0.51340  1.0000
  C   C10       1.0  0.67842  0.39726  0.48660  1.0000
  C   C11       1.0  0.29014  0.75035  0.53998  1.0000
  C   C12       1.0  0.70985  0.24965  0.46002  1.0000
  C   C13       1.0  0.20746  0.97693  0.92841  1.0000
  C   C14       1.0  0.79254  0.02307  0.07159  1.0000
  C   C15       1.0  0.09361  0.82293  0.87373  1.0000
  C   C16       1.0  0.90639  0.17706  0.12627  1.0000
  C   C17       1.0  0.28198  0.03258  0.02477  1.0000
  C   C18       1.0  0.71804  0.96742  0.97524  1.0000
  C   C19       1.0  0.42563  0.18257  0.06568  1.0000
  C   C20       1.0  0.57438  0.81743  0.93432  1.0000
  C   C21       1.0  0.49534  0.23410  0.15766  1.0000
  C   C22       1.0  0.50467  0.76590  0.84234  1.0000
  C   C23       1.0  0.42536  0.13524  0.20993  1.0000
  C   C24       1.0  0.57466  0.86476  0.79007  1.0000
  C   C25       1.0  0.28502  0.98430  0.16947  1.0000
  C   C26       1.0  0.71500  0.01570  0.83053  1.0000
  C   C27       1.0  0.21261  0.93368  0.07792  1.0000
  C   C28       1.0  0.78740  0.06632  0.92209  1.0000
  Br  Br1       1.0  0.79212  0.96306  0.57901  1.0000
  Br  Br2       1.0  0.20786  0.03693  0.42099  1.0000
  Br  Br3       1.0  0.48986  0.24767  0.67840  1.0000
  Br  Br4       1.0  0.51014  0.75233  0.32159  1.0000
  Br  Br5       1.0  0.07341  0.36466  0.80068  1.0000
  Br  Br6       1.0  0.92658  0.63534  0.19932  1.0000
  Br  Br7       1.0  0.73064  0.47255  0.94309  1.0000
  Br  Br8       1.0  0.26936  0.52745  0.05691  1.0000
  N   N1        1.0  0.06688  0.83593  0.79040  1.0000
  N   N2        1.0  0.93311  0.16407  0.20960  1.0000
  N   N3        1.0  0.15577  0.98714  0.79084  1.0000
  N   N4        1.0  0.84423  0.01286  0.20916  1.0000
  N   N5        1.0  0.24129  0.07253  0.87374  1.0000
  N   N6        1.0  0.75871  0.92747  0.12626  1.0000
  N   N7        1.0  0.17810  0.78368  0.60114  1.0000
  N   N8        1.0  0.82189  0.21631  0.39886  1.0000
