data_image0
_chemical_formula_structural       Tb4H20C36O28
_chemical_formula_sum              "Tb4 H20 C36 O28"
_cell_length_a       10.3553
_cell_length_b       10.3553
_cell_length_c       14.5336
_cell_angle_alpha    90.0001
_cell_angle_beta     89.9999
_cell_angle_gamma    89.9981

_space_group_name_H-M_alt    "P 1"
_space_group_IT_number       1

loop_
  _space_group_symop_operation_xyz
  'x, y, z'

loop_
  _atom_site_type_symbol
  _atom_site_label
  _atom_site_symmetry_multiplicity
  _atom_site_fract_x
  _atom_site_fract_y
  _atom_site_fract_z
  _atom_site_occupancy
  Tb  Tb1       1.0  0.64424  0.64331  0.15430  1.0000
  Tb  Tb2       1.0  0.35576  0.35669  0.65430  1.0000
  Tb  Tb3       1.0  0.35668  0.64425  0.90430  1.0000
  Tb  Tb4       1.0  0.64332  0.35576  0.40430  1.0000
  H   H1        1.0  0.40877  0.50130  0.27920  1.0000
  H   H2        1.0  0.59123  0.49869  0.77920  1.0000
  H   H3        1.0  0.49869  0.40876  0.02920  1.0000
  H   H4        1.0  0.50131  0.59124  0.52919  1.0000
  H   H5        1.0  0.05105  0.43041  0.42062  1.0000
  H   H6        1.0  0.94895  0.56960  0.92062  1.0000
  H   H7        1.0  0.56959  0.05104  0.17061  1.0000
  H   H8        1.0  0.43042  0.94896  0.67061  1.0000
  H   H9        1.0  0.04775  0.57791  0.14290  1.0000
  H   H10       1.0  0.95225  0.42208  0.64291  1.0000
  H   H11       1.0  0.42206  0.04776  0.89291  1.0000
  H   H12       1.0  0.57793  0.95225  0.39290  1.0000
  H   H13       1.0  0.78170  0.89573  0.15261  1.0000
  H   H14       1.0  0.21829  0.10427  0.65261  1.0000
  H   H15       1.0  0.10426  0.78172  0.90261  1.0000
  H   H16       1.0  0.89574  0.21828  0.40262  1.0000
  H   H17       1.0  0.87533  0.79332  0.19894  1.0000
  H   H18       1.0  0.12466  0.20668  0.69894  1.0000
  H   H19       1.0  0.20667  0.87533  0.94895  1.0000
  H   H20       1.0  0.79332  0.12467  0.44895  1.0000
  C   C1        1.0  0.30373  0.50207  0.27987  1.0000
  C   C2        1.0  0.69627  0.49793  0.77987  1.0000
  C   C3        1.0  0.49793  0.30373  0.02987  1.0000
  C   C4        1.0  0.50206  0.69627  0.52987  1.0000
  C   C5        1.0  0.03418  0.50369  0.28175  1.0000
  C   C6        1.0  0.96582  0.49631  0.78175  1.0000
  C   C7        1.0  0.49630  0.03418  0.03175  1.0000
  C   C8        1.0  0.50371  0.96582  0.53175  1.0000
  C   C9        1.0  0.31013  0.58786  0.11944  1.0000
  C   C10       1.0  0.68987  0.41214  0.61944  1.0000
  C   C11       1.0  0.41214  0.31013  0.86944  1.0000
  C   C12       1.0  0.58786  0.68987  0.36943  1.0000
  C   C13       1.0  0.10260  0.46122  0.35902  1.0000
  C   C14       1.0  0.89740  0.53879  0.85902  1.0000
  C   C15       1.0  0.53878  0.10260  0.10902  1.0000
  C   C16       1.0  0.46123  0.89740  0.60902  1.0000
  C   C17       1.0  0.23607  0.54529  0.20251  1.0000
  C   C18       1.0  0.76393  0.45470  0.70252  1.0000
  C   C19       1.0  0.45470  0.23607  0.95252  1.0000
  C   C20       1.0  0.54530  0.76393  0.45252  1.0000
  C   C21       1.0  0.10089  0.54587  0.20349  1.0000
  C   C22       1.0  0.89910  0.45412  0.70350  1.0000
  C   C23       1.0  0.45411  0.10090  0.95349  1.0000
  C   C24       1.0  0.54589  0.89910  0.45349  1.0000
  C   C25       1.0  0.23761  0.46010  0.35811  1.0000
  C   C26       1.0  0.76240  0.53990  0.85812  1.0000
  C   C27       1.0  0.53990  0.23760  0.10811  1.0000
  C   C28       1.0  0.46010  0.76240  0.60811  1.0000
  C   C29       1.0  0.88935  0.50356  0.28321  1.0000
  C   C30       1.0  0.11065  0.49645  0.78320  1.0000
  C   C31       1.0  0.49643  0.88935  0.03320  1.0000
  C   C32       1.0  0.50358  0.11065  0.53320  1.0000
  C   C33       1.0  0.31183  0.41609  0.44047  1.0000
  C   C34       1.0  0.68817  0.58391  0.94047  1.0000
  C   C35       1.0  0.58391  0.31183  0.19047  1.0000
  C   C36       1.0  0.41609  0.68817  0.69047  1.0000
  O   O1        1.0  0.43027  0.60970  0.12883  1.0000
  O   O2        1.0  0.56973  0.39029  0.62883  1.0000
  O   O3        1.0  0.39028  0.43027  0.87883  1.0000
  O   O4        1.0  0.60971  0.56973  0.37883  1.0000
  O   O5        1.0  0.83502  0.42294  0.33643  1.0000
  O   O6        1.0  0.16498  0.57706  0.83642  1.0000
  O   O7        1.0  0.57705  0.83501  0.08641  1.0000
  O   O8        1.0  0.42296  0.16499  0.58642  1.0000
  O   O9        1.0  0.83262  0.58444  0.23123  1.0000
  O   O10       1.0  0.16738  0.41556  0.73123  1.0000
  O   O11       1.0  0.41553  0.83263  0.98122  1.0000
  O   O12       1.0  0.58447  0.16737  0.48122  1.0000
  O   O13       1.0  0.25368  0.41083  0.51756  1.0000
  O   O14       1.0  0.74632  0.58917  0.01756  1.0000
  O   O15       1.0  0.58917  0.25368  0.26756  1.0000
  O   O16       1.0  0.41083  0.74631  0.76756  1.0000
  O   O17       1.0  0.43029  0.38708  0.43014  1.0000
  O   O18       1.0  0.56971  0.61292  0.93014  1.0000
  O   O19       1.0  0.61292  0.43028  0.18014  1.0000
  O   O20       1.0  0.38708  0.56971  0.68014  1.0000
  O   O21       1.0  0.25075  0.59833  0.04291  1.0000
  O   O22       1.0  0.74925  0.40167  0.54291  1.0000
  O   O23       1.0  0.40167  0.25076  0.79291  1.0000
  O   O24       1.0  0.59833  0.74925  0.29291  1.0000
  O   O25       1.0  0.81902  0.80984  0.14650  1.0000
  O   O26       1.0  0.18098  0.19016  0.64650  1.0000
  O   O27       1.0  0.19015  0.81903  0.89650  1.0000
  O   O28       1.0  0.80985  0.18097  0.39651  1.0000
