data_image0
_chemical_formula_structural       Mn4H20C16O26
_chemical_formula_sum              "Mn4 H20 C16 O26"
_cell_length_a       7.56507
_cell_length_b       8.94558
_cell_length_c       11.0152
_cell_angle_alpha    89.9999
_cell_angle_beta     90.0097
_cell_angle_gamma    99.2095

_space_group_name_H-M_alt    "P 1"
_space_group_IT_number       1

loop_
  _space_group_symop_operation_xyz
  'x, y, z'

loop_
  _atom_site_type_symbol
  _atom_site_label
  _atom_site_symmetry_multiplicity
  _atom_site_fract_x
  _atom_site_fract_y
  _atom_site_fract_z
  _atom_site_occupancy
  Mn  Mn1       1.0  0.23666  0.23958  0.37378  1.0000
  Mn  Mn2       1.0  0.76318  0.76013  0.87382  1.0000
  Mn  Mn3       1.0  0.34511  0.21611  0.88543  1.0000
  Mn  Mn4       1.0  0.65490  0.78403  0.38556  1.0000
  H   H1        1.0  0.00237  0.04498  0.49064  1.0000
  H   H2        1.0  0.99763  0.95472  0.99045  1.0000
  H   H3        1.0  0.50604  0.02959  0.76107  1.0000
  H   H4        1.0  0.49426  0.97080  0.26098  1.0000
  H   H5        1.0  0.39355  0.28842  0.60065  1.0000
  H   H6        1.0  0.60708  0.71190  0.10068  1.0000
  H   H7        1.0  0.09629  0.30689  0.70164  1.0000
  H   H8        1.0  0.90508  0.69157  0.20292  1.0000
  H   H9        1.0  0.13522  0.36849  0.03247  1.0000
  H   H10       1.0  0.86444  0.63150  0.53255  1.0000
  H   H11       1.0  0.30593  0.33210  0.11196  1.0000
  H   H12       1.0  0.69392  0.66810  0.61214  1.0000
  H   H13       1.0  0.10866  0.85004  0.54548  1.0000
  H   H14       1.0  0.89187  0.14980  0.04535  1.0000
  H   H15       1.0  0.32336  0.84274  0.69751  1.0000
  H   H16       1.0  0.67738  0.15749  0.19735  1.0000
  H   H17       1.0  0.39920  0.59195  0.54617  1.0000
  H   H18       1.0  0.60040  0.40813  0.04623  1.0000
  H   H19       1.0  0.21601  0.57860  0.73674  1.0000
  H   H20       1.0  0.78295  0.42106  0.23702  1.0000
  C   C1        1.0  0.35304  0.95216  0.46787  1.0000
  C   C2        1.0  0.64733  0.04818  0.96769  1.0000
  C   C3        1.0  0.20190  0.95667  0.55931  1.0000
  C   C4        1.0  0.79839  0.04329  0.05915  1.0000
  C   C5        1.0  0.26978  0.94983  0.68942  1.0000
  C   C6        1.0  0.73058  0.05020  0.18928  1.0000
  C   C7        1.0  0.11512  0.94073  0.78057  1.0000
  C   C8        1.0  0.88515  0.05894  0.28050  1.0000
  C   C9        1.0  0.13060  0.49316  0.51077  1.0000
  C   C10       1.0  0.86915  0.50671  0.01109  1.0000
  C   C11       1.0  0.31186  0.48726  0.57303  1.0000
  C   C12       1.0  0.68783  0.51271  0.07318  1.0000
  C   C13       1.0  0.29124  0.48802  0.71082  1.0000
  C   C14       1.0  0.70823  0.51189  0.21098  1.0000
  C   C15       1.0  0.47719  0.51575  0.76911  1.0000
  C   C16       1.0  0.52220  0.48474  0.26913  1.0000
  O   O1        1.0  0.36562  0.04009  0.37547  1.0000
  O   O2        1.0  0.63451  0.96027  0.87528  1.0000
  O   O3        1.0  0.45325  0.85476  0.48789  1.0000
  O   O4        1.0  0.54745  0.14585  0.98773  1.0000
  O   O5        1.0  0.14081  0.02155  0.87740  1.0000
  O   O6        1.0  0.85920  0.97813  0.37733  1.0000
  O   O7        1.0  0.97436  0.85051  0.75631  1.0000
  O   O8        1.0  0.02613  0.14888  0.25636  1.0000
  O   O9        1.0  0.11137  0.08366  0.54025  1.0000
  O   O10       1.0  0.88858  0.91612  0.04005  1.0000
  O   O11       1.0  0.41110  0.07339  0.71605  1.0000
  O   O12       1.0  0.58903  0.92688  0.21592  1.0000
  O   O13       1.0  0.07160  0.39197  0.43345  1.0000
  O   O14       1.0  0.92799  0.60755  0.93348  1.0000
  O   O15       1.0  0.05685  0.60276  0.54435  1.0000
  O   O16       1.0  0.94305  0.39729  0.04499  1.0000
  O   O17       1.0  0.53381  0.40852  0.82255  1.0000
  O   O18       1.0  0.46603  0.59229  0.32242  1.0000
  O   O19       1.0  0.56547  0.64935  0.75403  1.0000
  O   O20       1.0  0.43336  0.35135  0.25407  1.0000
  O   O21       1.0  0.39399  0.36087  0.53363  1.0000
  O   O22       1.0  0.60588  0.63920  0.03377  1.0000
  O   O23       1.0  0.19942  0.34350  0.75297  1.0000
  O   O24       1.0  0.80038  0.65631  0.25316  1.0000
  O   O25       1.0  0.25695  0.33330  0.02940  1.0000
  O   O26       1.0  0.74274  0.66669  0.52957  1.0000
