data_image0
_chemical_formula_structural       Cu2H28C40N8O12
_chemical_formula_sum              "Cu2 H28 C40 N8 O12"
_cell_length_a       9.53278
_cell_length_b       8.42558
_cell_length_c       13.8513
_cell_angle_alpha    84.4065
_cell_angle_beta     69.7874
_cell_angle_gamma    73.924

_space_group_name_H-M_alt    "P 1"
_space_group_IT_number       1

loop_
  _space_group_symop_operation_xyz
  'x, y, z'

loop_
  _atom_site_type_symbol
  _atom_site_label
  _atom_site_symmetry_multiplicity
  _atom_site_fract_x
  _atom_site_fract_y
  _atom_site_fract_z
  _atom_site_occupancy
  Cu  Cu1       1.0  1.00000  0.99999  0.50000  1.0000
  Cu  Cu2       1.0  0.50000  0.50000  0.50000  1.0000
  H   H1        1.0  0.81634  0.90085  0.39444  1.0000
  H   H2        1.0  0.79026  0.59762  0.39336  1.0000
  H   H3        1.0  0.18365  0.09915  0.60556  1.0000
  H   H4        1.0  0.20974  0.40239  0.60664  1.0000
  H   H5        1.0  0.81370  0.90582  0.21159  1.0000
  H   H6        1.0  0.97578  0.59246  0.21024  1.0000
  H   H7        1.0  0.18630  0.09418  0.78840  1.0000
  H   H8        1.0  0.02422  0.40754  0.78976  1.0000
  H   H9        1.0  0.99454  0.03562  0.07417  1.0000
  H   H10       1.0  0.93114  0.46367  0.07350  1.0000
  H   H11       1.0  0.00547  0.96438  0.92583  1.0000
  H   H12       1.0  0.06887  0.53632  0.92651  1.0000
  H   H13       1.0  0.16377  0.14330  0.30652  1.0000
  H   H14       1.0  0.52856  0.35719  0.30690  1.0000
  H   H15       1.0  0.83623  0.85669  0.69348  1.0000
  H   H16       1.0  0.47145  0.64281  0.69310  1.0000
  H   H17       1.0  0.23926  0.25442  0.13521  1.0000
  H   H18       1.0  0.62395  0.24614  0.13570  1.0000
  H   H19       1.0  0.76074  0.74557  0.86480  1.0000
  H   H20       1.0  0.37607  0.75383  0.86430  1.0000
  H   H21       1.0  0.41479  0.14929  0.80292  1.0000
  H   H22       1.0  0.78385  0.35002  0.80298  1.0000
  H   H23       1.0  0.58519  0.85073  0.19708  1.0000
  H   H24       1.0  0.21616  0.64997  0.19702  1.0000
  H   H25       1.0  0.64710  0.24948  0.70826  1.0000
  H   H26       1.0  0.35289  0.75053  0.29174  1.0000
  H   H27       1.0  0.45484  0.25030  0.08913  1.0000
  H   H28       1.0  0.54516  0.74969  0.91087  1.0000
  C   C1        1.0  0.89400  0.95465  0.33078  1.0000
  C   C2        1.0  0.77574  0.54431  0.32996  1.0000
  C   C3        1.0  0.10599  0.04536  0.66922  1.0000
  C   C4        1.0  0.22426  0.45569  0.67005  1.0000
  C   C5        1.0  0.89352  0.95811  0.23026  1.0000
  C   C6        1.0  0.87677  0.54075  0.22932  1.0000
  C   C7        1.0  0.10648  0.04189  0.76973  1.0000
  C   C8        1.0  0.12324  0.45926  0.77068  1.0000
  C   C9        1.0  0.99445  0.03067  0.15268  1.0000
  C   C10       1.0  0.85282  0.46858  0.15214  1.0000
  C   C11       1.0  0.00554  0.96933  0.84732  1.0000
  C   C12       1.0  0.14719  0.53142  0.84786  1.0000
  C   C13       1.0  0.09506  0.09876  0.17854  1.0000
  C   C14       1.0  0.72568  0.40117  0.17849  1.0000
  C   C15       1.0  0.90493  0.90124  0.82146  1.0000
  C   C16       1.0  0.27433  0.59883  0.82152  1.0000
  C   C17       1.0  0.08757  0.09332  0.28172  1.0000
  C   C18       1.0  0.62999  0.40675  0.28175  1.0000
  C   C19       1.0  0.91243  0.90667  0.71828  1.0000
  C   C20       1.0  0.37002  0.59323  0.71825  1.0000
  C   C21       1.0  0.27812  0.13248  0.00443  1.0000
  C   C22       1.0  0.71701  0.36774  0.00454  1.0000
  C   C23       1.0  0.72188  0.86754  0.99558  1.0000
  C   C24       1.0  0.28299  0.63225  0.99547  1.0000
  C   C25       1.0  0.41821  0.19534  0.95227  1.0000
  C   C26       1.0  0.62963  0.30469  0.95233  1.0000
  C   C27       1.0  0.58177  0.80467  0.04774  1.0000
  C   C28       1.0  0.37036  0.69530  0.04768  1.0000
  C   C29       1.0  0.47501  0.19327  0.84448  1.0000
  C   C30       1.0  0.68168  0.30626  0.84453  1.0000
  C   C31       1.0  0.52498  0.80676  0.15551  1.0000
  C   C32       1.0  0.31832  0.69373  0.15547  1.0000
  C   C33       1.0  0.60507  0.24972  0.79147  1.0000
  C   C34       1.0  0.39493  0.75029  0.20854  1.0000
  C   C35       1.0  0.49712  0.25020  0.00532  1.0000
  C   C36       1.0  0.50289  0.74980  0.99467  1.0000
  C   C37       1.0  0.78177  0.30928  0.53806  1.0000
  C   C38       1.0  0.67987  0.19045  0.53852  1.0000
  C   C39       1.0  0.21823  0.69072  0.46194  1.0000
  C   C40       1.0  0.32013  0.80955  0.46148  1.0000
  N   N1        1.0  0.98999  0.02244  0.35500  1.0000
  N   N2        1.0  0.65492  0.47711  0.35470  1.0000
  N   N3        1.0  0.01000  0.97756  0.64500  1.0000
  N   N4        1.0  0.34509  0.52290  0.64530  1.0000
  N   N5        1.0  0.20507  0.17050  0.10684  1.0000
  N   N6        1.0  0.68694  0.32989  0.10710  1.0000
  N   N7        1.0  0.79493  0.82950  0.89316  1.0000
  N   N8        1.0  0.31307  0.67010  0.89290  1.0000
  O   O1        1.0  0.23564  0.04703  0.95744  1.0000
  O   O2        1.0  0.80670  0.45331  0.95738  1.0000
  O   O3        1.0  0.76435  0.95300  0.04256  1.0000
  O   O4        1.0  0.19329  0.54670  0.04263  1.0000
  O   O5        1.0  0.92674  0.24389  0.51985  1.0000
  O   O6        1.0  0.55289  0.25595  0.52061  1.0000
  O   O7        1.0  0.07326  0.75610  0.48015  1.0000
  O   O8        1.0  0.44711  0.74406  0.47939  1.0000
  O   O9        1.0  0.71521  0.45888  0.55879  1.0000
  O   O10       1.0  0.72547  0.04088  0.55965  1.0000
  O   O11       1.0  0.28479  0.54111  0.44121  1.0000
  O   O12       1.0  0.27452  0.95912  0.44035  1.0000
