data_image0
_chemical_formula_structural       Er2H28C24N6O20
_chemical_formula_sum              "Er2 H28 C24 N6 O20"
_cell_length_a       7.50863
_cell_length_b       11.8584
_cell_length_c       12.8301
_cell_angle_alpha    110.471
_cell_angle_beta     98.0288
_cell_angle_gamma    96.249

_space_group_name_H-M_alt    "P 1"
_space_group_IT_number       1

loop_
  _space_group_symop_operation_xyz
  'x, y, z'

loop_
  _atom_site_type_symbol
  _atom_site_label
  _atom_site_symmetry_multiplicity
  _atom_site_fract_x
  _atom_site_fract_y
  _atom_site_fract_z
  _atom_site_occupancy
  Er  Er1       1.0  0.25156  0.01167  0.98021  1.0000
  Er  Er2       1.0  0.74838  0.98833  0.01978  1.0000
  H   H1        1.0  0.95081  0.87200  0.56630  1.0000
  H   H2        1.0  0.04922  0.12803  0.43372  1.0000
  H   H3        1.0  0.96537  0.72828  0.58030  1.0000
  H   H4        1.0  0.03469  0.27174  0.41971  1.0000
  H   H5        1.0  0.73668  0.76803  0.71076  1.0000
  H   H6        1.0  0.26330  0.23195  0.28920  1.0000
  H   H7        1.0  0.72051  0.90802  0.69343  1.0000
  H   H8        1.0  0.27947  0.09196  0.30655  1.0000
  H   H9        1.0  0.38713  0.90933  0.36380  1.0000
  H   H10       1.0  0.61289  0.09067  0.63619  1.0000
  H   H11       1.0  0.25587  0.77226  0.25699  1.0000
  H   H12       1.0  0.74416  0.22772  0.74302  1.0000
  H   H13       1.0  0.51841  0.75423  0.14986  1.0000
  H   H14       1.0  0.48159  0.24578  0.85012  1.0000
  H   H15       1.0  0.63315  0.89821  0.24845  1.0000
  H   H16       1.0  0.36682  0.10180  0.75154  1.0000
  H   H17       1.0  0.36328  0.39817  0.24865  1.0000
  H   H18       1.0  0.63674  0.60183  0.75140  1.0000
  H   H19       1.0  0.51664  0.38722  0.36341  1.0000
  H   H20       1.0  0.48343  0.61278  0.63661  1.0000
  H   H21       1.0  0.63885  0.43026  0.15981  1.0000
  H   H22       1.0  0.36113  0.56974  0.84019  1.0000
  H   H23       1.0  0.77687  0.39692  0.26555  1.0000
  H   H24       1.0  0.22314  0.60305  0.73444  1.0000
  H   H25       1.0  0.17906  0.24984  0.01742  1.0000
  H   H26       1.0  0.82086  0.75018  0.98257  1.0000
  H   H27       1.0  0.01372  0.17339  0.91794  1.0000
  H   H28       1.0  0.98622  0.82663  0.08206  1.0000
  C   C1        1.0  0.67528  0.60948  0.44790  1.0000
  C   C2        1.0  0.32476  0.39053  0.55210  1.0000
  C   C3        1.0  0.63145  0.81075  0.44251  1.0000
  C   C4        1.0  0.36862  0.18928  0.55749  1.0000
  C   C5        1.0  0.44636  0.62302  0.29694  1.0000
  C   C6        1.0  0.55368  0.37697  0.70307  1.0000
  C   C7        1.0  0.87708  0.79624  0.58165  1.0000
  C   C8        1.0  0.12295  0.20377  0.41836  1.0000
  C   C9        1.0  0.81297  0.84224  0.69443  1.0000
  C   C10       1.0  0.18702  0.15774  0.30557  1.0000
  C   C11       1.0  0.96835  0.90692  0.79276  1.0000
  C   C12       1.0  0.03161  0.09306  0.20724  1.0000
  C   C13       1.0  0.39388  0.82281  0.29676  1.0000
  C   C14       1.0  0.60614  0.17719  0.70324  1.0000
  C   C15       1.0  0.49727  0.84302  0.20874  1.0000
  C   C16       1.0  0.50270  0.15699  0.79125  1.0000
  C   C17       1.0  0.39883  0.90135  0.13627  1.0000
  C   C18       1.0  0.60112  0.09865  0.86372  1.0000
  C   C19       1.0  0.50381  0.42386  0.29587  1.0000
  C   C20       1.0  0.49622  0.57615  0.70417  1.0000
  C   C21       1.0  0.63759  0.37950  0.21722  1.0000
  C   C22       1.0  0.36240  0.62049  0.78279  1.0000
  C   C23       1.0  0.58739  0.24474  0.14205  1.0000
  C   C24       1.0  0.41257  0.75525  0.85794  1.0000
  N   N1        1.0  0.53997  0.55737  0.35080  1.0000
  N   N2        1.0  0.46007  0.44262  0.64922  1.0000
  N   N3        1.0  0.72222  0.73623  0.48680  1.0000
  N   N4        1.0  0.27783  0.26377  0.51318  1.0000
  N   N5        1.0  0.48785  0.74969  0.35130  1.0000
  N   N6        1.0  0.51219  0.25031  0.64869  1.0000
  O   O1        1.0  0.11958  0.95115  0.77974  1.0000
  O   O2        1.0  0.88037  0.04885  0.22027  1.0000
  O   O3        1.0  0.94455  0.91669  0.89399  1.0000
  O   O4        1.0  0.05540  0.08329  0.10599  1.0000
  O   O5        1.0  0.41772  0.19917  0.10867  1.0000
  O   O6        1.0  0.58223  0.80083  0.89132  1.0000
  O   O7        1.0  0.71781  0.18824  0.11534  1.0000
  O   O8        1.0  0.28216  0.81175  0.88464  1.0000
  O   O9        1.0  0.49595  0.96512  0.09442  1.0000
  O   O10       1.0  0.50400  0.03489  0.90557  1.0000
  O   O11       1.0  0.22717  0.88973  0.11355  1.0000
  O   O12       1.0  0.77278  0.11024  0.88644  1.0000
  O   O13       1.0  0.33429  0.57302  0.20804  1.0000
  O   O14       1.0  0.66577  0.42699  0.79198  1.0000
  O   O15       1.0  0.75042  0.54783  0.49441  1.0000
  O   O16       1.0  0.24968  0.45219  0.50560  1.0000
  O   O17       1.0  0.67586  0.92242  0.48140  1.0000
  O   O18       1.0  0.32420  0.07758  0.51859  1.0000
  O   O19       1.0  0.14694  0.18361  0.94325  1.0000
  O   O20       1.0  0.85300  0.81640  0.05675  1.0000
