data_image0
_chemical_formula_structural       Mn4H24C36N12O16
_chemical_formula_sum              "Mn4 H24 C36 N12 O16"
_cell_length_a       6.37314
_cell_length_b       11.1611
_cell_length_c       15.0905
_cell_angle_alpha    91.3115
_cell_angle_beta     89.9728
_cell_angle_gamma    106.606

_space_group_name_H-M_alt    "P 1"
_space_group_IT_number       1

loop_
  _space_group_symop_operation_xyz
  'x, y, z'

loop_
  _atom_site_type_symbol
  _atom_site_label
  _atom_site_symmetry_multiplicity
  _atom_site_fract_x
  _atom_site_fract_y
  _atom_site_fract_z
  _atom_site_occupancy
  Mn  Mn1       1.0  0.05454  0.50978  0.25355  1.0000
  Mn  Mn2       1.0  0.54493  0.49058  0.24650  1.0000
  Mn  Mn3       1.0  0.94548  0.49023  0.74644  1.0000
  Mn  Mn4       1.0  0.45508  0.50942  0.75349  1.0000
  H   H1        1.0  0.98861  0.31700  0.00181  1.0000
  H   H2        1.0  0.67124  0.68297  0.49839  1.0000
  H   H3        1.0  0.01139  0.68299  0.99819  1.0000
  H   H4        1.0  0.32873  0.31701  0.50161  1.0000
  H   H5        1.0  0.21197  0.40879  0.93945  1.0000
  H   H6        1.0  0.80264  0.59113  0.56065  1.0000
  H   H7        1.0  0.78803  0.59120  0.06054  1.0000
  H   H8        1.0  0.19734  0.40885  0.43934  1.0000
  H   H9        1.0  0.64957  0.15338  0.89091  1.0000
  H   H10       1.0  0.49618  0.84648  0.60893  1.0000
  H   H11       1.0  0.35043  0.84661  0.10907  1.0000
  H   H12       1.0  0.50378  0.15352  0.39109  1.0000
  H   H13       1.0  0.47888  0.32532  0.89463  1.0000
  H   H14       1.0  0.15335  0.67455  0.60532  1.0000
  H   H15       1.0  0.52113  0.67467  0.10537  1.0000
  H   H16       1.0  0.84661  0.32544  0.39469  1.0000
  H   H17       1.0  0.21075  0.98462  0.10430  1.0000
  H   H18       1.0  0.22608  0.01541  0.39583  1.0000
  H   H19       1.0  0.78926  0.01536  0.89568  1.0000
  H   H20       1.0  0.77389  0.98460  0.60419  1.0000
  H   H21       1.0  0.05248  0.16076  0.09605  1.0000
  H   H22       1.0  0.89143  0.83937  0.40429  1.0000
  H   H23       1.0  0.94753  0.83922  0.90395  1.0000
  H   H24       1.0  0.10855  0.16063  0.59572  1.0000
  C   C1        1.0  0.24636  0.43879  0.08152  1.0000
  C   C2        1.0  0.80750  0.56137  0.41857  1.0000
  C   C3        1.0  0.75365  0.56120  0.91847  1.0000
  C   C4        1.0  0.19251  0.43863  0.58142  1.0000
  C   C5        1.0  0.16710  0.35365  0.99926  1.0000
  C   C6        1.0  0.81308  0.64635  0.50088  1.0000
  C   C7        1.0  0.83290  0.64634  0.00073  1.0000
  C   C8        1.0  0.18691  0.35364  0.49911  1.0000
  C   C9        1.0  0.19804  0.25560  0.29006  1.0000
  C   C10       1.0  0.94297  0.74481  0.21024  1.0000
  C   C11       1.0  0.80196  0.74441  0.70996  1.0000
  C   C12       1.0  0.05705  0.25522  0.78976  1.0000
  C   C13       1.0  0.44978  0.05144  0.99861  1.0000
  C   C14       1.0  0.39830  0.94853  0.50140  1.0000
  C   C15       1.0  0.55024  0.94855  0.00137  1.0000
  C   C16       1.0  0.60166  0.05147  0.49863  1.0000
  C   C17       1.0  0.52062  0.15013  0.93895  1.0000
  C   C18       1.0  0.37042  0.84977  0.56099  1.0000
  C   C19       1.0  0.47939  0.84986  0.06104  1.0000
  C   C20       1.0  0.62954  0.15023  0.43903  1.0000
  C   C21       1.0  0.42708  0.24739  0.93932  1.0000
  C   C22       1.0  0.17952  0.75253  0.56068  1.0000
  C   C23       1.0  0.57292  0.75260  0.06067  1.0000
  C   C24       1.0  0.82044  0.24747  0.43933  1.0000
  C   C25       1.0  0.27744  0.05620  0.05600  1.0000
  C   C26       1.0  0.22115  0.94383  0.44412  1.0000
  C   C27       1.0  0.72258  0.94379  0.94399  1.0000
  C   C28       1.0  0.77882  0.05618  0.55590  1.0000
  C   C29       1.0  0.46901  0.73001  0.30805  1.0000
  C   C30       1.0  0.73884  0.27040  0.19194  1.0000
  C   C31       1.0  0.53100  0.27000  0.69196  1.0000
  C   C32       1.0  0.26119  0.72961  0.80804  1.0000
  C   C33       1.0  0.18694  0.15409  0.05330  1.0000
  C   C34       1.0  0.03263  0.84598  0.44692  1.0000
  C   C35       1.0  0.81307  0.84590  0.94669  1.0000
  C   C36       1.0  0.96735  0.15403  0.55310  1.0000
  N   N1        1.0  0.22009  0.36518  0.27812  1.0000
  N   N2        1.0  0.85535  0.63514  0.22191  1.0000
  N   N3        1.0  0.77991  0.63481  0.72188  1.0000
  N   N4        1.0  0.14467  0.36488  0.77808  1.0000
  N   N5        1.0  0.37480  0.63952  0.26307  1.0000
  N   N6        1.0  0.73489  0.36081  0.23697  1.0000
  N   N7        1.0  0.62522  0.36050  0.73693  1.0000
  N   N8        1.0  0.26514  0.63920  0.76302  1.0000
  N   N9        1.0  0.26143  0.24848  0.99555  1.0000
  N   N10       1.0  0.01267  0.75154  0.50461  1.0000
  N   N11       1.0  0.73859  0.75151  0.00445  1.0000
  N   N12       1.0  0.98731  0.24845  0.49540  1.0000
  O   O1        1.0  0.56870  0.81981  0.35155  1.0000
  O   O2        1.0  0.74901  0.18070  0.14839  1.0000
  O   O3        1.0  0.43129  0.18020  0.64846  1.0000
  O   O4        1.0  0.25101  0.81932  0.85158  1.0000
  O   O5        1.0  0.17877  0.14709  0.30332  1.0000
  O   O6        1.0  0.03232  0.85339  0.19729  1.0000
  O   O7        1.0  0.82124  0.85291  0.69673  1.0000
  O   O8        1.0  0.96770  0.14664  0.80272  1.0000
  O   O9        1.0  0.43950  0.45100  0.10954  1.0000
  O   O10       1.0  0.98851  0.54912  0.39065  1.0000
  O   O11       1.0  0.56051  0.54898  0.89046  1.0000
  O   O12       1.0  0.01151  0.45090  0.60934  1.0000
  O   O13       1.0  0.10760  0.48899  0.11340  1.0000
  O   O14       1.0  0.61863  0.51136  0.38654  1.0000
  O   O15       1.0  0.89242  0.51101  0.88660  1.0000
  O   O16       1.0  0.38139  0.48864  0.61345  1.0000
