data_image0
_chemical_formula_structural       Zn2H28C40N12O12
_chemical_formula_sum              "Zn2 H28 C40 N12 O12"
_cell_length_a       8.2511
_cell_length_b       11.1231
_cell_length_c       11.2554
_cell_angle_alpha    73.5201
_cell_angle_beta     74.6873
_cell_angle_gamma    82.7811

_space_group_name_H-M_alt    "P 1"
_space_group_IT_number       1

loop_
  _space_group_symop_operation_xyz
  'x, y, z'

loop_
  _atom_site_type_symbol
  _atom_site_label
  _atom_site_symmetry_multiplicity
  _atom_site_fract_x
  _atom_site_fract_y
  _atom_site_fract_z
  _atom_site_occupancy
  Zn  Zn1       1.0  0.76141  0.79627  0.74547  1.0000
  Zn  Zn2       1.0  0.23859  0.20373  0.25453  1.0000
  H   H1        1.0  0.39913  0.91701  0.88358  1.0000
  H   H2        1.0  0.60088  0.08298  0.11642  1.0000
  H   H3        1.0  0.10898  0.84535  0.97977  1.0000
  H   H4        1.0  0.89102  0.15465  0.02023  1.0000
  H   H5        1.0  0.05174  0.62387  0.99521  1.0000
  H   H6        1.0  0.94825  0.37613  0.00479  1.0000
  H   H7        1.0  0.28811  0.48344  0.91408  1.0000
  H   H8        1.0  0.71188  0.51656  0.08592  1.0000
  H   H9        1.0  0.48870  0.38322  0.82613  1.0000
  H   H10       1.0  0.51130  0.61678  0.17387  1.0000
  H   H11       1.0  0.02520  0.37516  0.66566  1.0000
  H   H12       1.0  0.97481  0.62484  0.33434  1.0000
  H   H13       1.0  0.23863  0.47474  0.62029  1.0000
  H   H14       1.0  0.76137  0.52526  0.37971  1.0000
  H   H15       1.0  0.48179  0.61455  0.54840  1.0000
  H   H16       1.0  0.51821  0.38545  0.45160  1.0000
  H   H17       1.0  0.42229  0.84224  0.55123  1.0000
  H   H18       1.0  0.57771  0.15776  0.44877  1.0000
  H   H19       1.0  0.12981  0.92023  0.61782  1.0000
  H   H20       1.0  0.87019  0.07977  0.38218  1.0000
  H   H21       1.0  0.50725  0.24103  0.71140  1.0000
  H   H22       1.0  0.49275  0.75897  0.28860  1.0000
  H   H23       1.0  0.53101  0.02278  0.69748  1.0000
  H   H24       1.0  0.46899  0.97722  0.30252  1.0000
  H   H25       1.0  0.99203  0.95550  0.79524  1.0000
  H   H26       1.0  0.00797  0.04450  0.20476  1.0000
  H   H27       1.0  0.00610  0.17884  0.78577  1.0000
  H   H28       1.0  0.99390  0.82116  0.21423  1.0000
  C   C1        1.0  0.37074  0.82219  0.88908  1.0000
  C   C2        1.0  0.62926  0.17781  0.11092  1.0000
  C   C3        1.0  0.20832  0.78116  0.94407  1.0000
  C   C4        1.0  0.79169  0.21884  0.05592  1.0000
  C   C5        1.0  0.17769  0.65805  0.95317  1.0000
  C   C6        1.0  0.82231  0.34195  0.04682  1.0000
  C   C7        1.0  0.31011  0.58018  0.90654  1.0000
  C   C8        1.0  0.68989  0.41982  0.09346  1.0000
  C   C9        1.0  0.46882  0.62876  0.84985  1.0000
  C   C10       1.0  0.53118  0.37124  0.15015  1.0000
  C   C11       1.0  0.61584  0.55193  0.79734  1.0000
  C   C12       1.0  0.38416  0.44807  0.20266  1.0000
  C   C13       1.0  0.60797  0.42860  0.79277  1.0000
  C   C14       1.0  0.39204  0.57140  0.20723  1.0000
  C   C15       1.0  0.75719  0.36318  0.74698  1.0000
  C   C16       1.0  0.24281  0.63682  0.25302  1.0000
  C   C17       1.0  0.90868  0.42419  0.70353  1.0000
  C   C18       1.0  0.09133  0.57581  0.29647  1.0000
  C   C19       1.0  0.90588  0.54870  0.70742  1.0000
  C   C20       1.0  0.09412  0.45130  0.29258  1.0000
  C   C21       1.0  0.05619  0.62450  0.66092  1.0000
  C   C22       1.0  0.94381  0.37550  0.33908  1.0000
  C   C23       1.0  0.21846  0.57372  0.61925  1.0000
  C   C24       1.0  0.78154  0.42628  0.38076  1.0000
  C   C25       1.0  0.35334  0.65123  0.57960  1.0000
  C   C26       1.0  0.64666  0.34877  0.42040  1.0000
  C   C27       1.0  0.32245  0.77723  0.58025  1.0000
  C   C28       1.0  0.67755  0.22277  0.41975  1.0000
  C   C29       1.0  0.15707  0.82132  0.62017  1.0000
  C   C30       1.0  0.84293  0.17868  0.37984  1.0000
  C   C31       1.0  0.75715  0.23070  0.74708  1.0000
  C   C32       1.0  0.24285  0.76930  0.25292  1.0000
  C   C33       1.0  0.62065  0.18334  0.72635  1.0000
  C   C34       1.0  0.37935  0.81666  0.27365  1.0000
  C   C35       1.0  0.63080  0.05905  0.72210  1.0000
  C   C36       1.0  0.36920  0.94095  0.27790  1.0000
  C   C37       1.0  0.89061  0.02324  0.77179  1.0000
  C   C38       1.0  0.10939  0.97676  0.22821  1.0000
  C   C39       1.0  0.89562  0.14797  0.76922  1.0000
  C   C40       1.0  0.10438  0.85203  0.23078  1.0000
  N   N1        1.0  0.49781  0.74844  0.84121  1.0000
  N   N2        1.0  0.50219  0.25156  0.15879  1.0000
  N   N3        1.0  0.76214  0.60810  0.75454  1.0000
  N   N4        1.0  0.23787  0.39189  0.24546  1.0000
  N   N5        1.0  0.02707  0.74681  0.66147  1.0000
  N   N6        1.0  0.97293  0.25319  0.33854  1.0000
  N   N7        1.0  0.76249  0.97970  0.74558  1.0000
  N   N8        1.0  0.23751  0.02030  0.25442  1.0000
  N   N9        1.0  0.73655  0.83009  0.45936  1.0000
  N   N10       1.0  0.26345  0.16992  0.54065  1.0000
  N   N11       1.0  0.76234  0.76796  0.04442  1.0000
  N   N12       1.0  0.23765  0.23204  0.95559  1.0000
  O   O1        1.0  0.71093  0.88037  0.55403  1.0000
  O   O2        1.0  0.28907  0.11963  0.44597  1.0000
  O   O3        1.0  0.77230  0.71388  0.47620  1.0000
  O   O4        1.0  0.22769  0.28612  0.52380  1.0000
  O   O5        1.0  0.72338  0.90039  0.35290  1.0000
  O   O6        1.0  0.27661  0.09961  0.64710  1.0000
  O   O7        1.0  0.80986  0.72289  0.94555  1.0000
  O   O8        1.0  0.19014  0.27712  0.05445  1.0000
  O   O9        1.0  0.71123  0.88051  0.03299  1.0000
  O   O10       1.0  0.28877  0.11949  0.96701  1.0000
  O   O11       1.0  0.77001  0.69356  0.15167  1.0000
  O   O12       1.0  0.22998  0.30644  0.84833  1.0000
