data_image0
_chemical_formula_structural       Cd4H28C28N4O28
_chemical_formula_sum              "Cd4 H28 C28 N4 O28"
_cell_length_a       8.4333
_cell_length_b       11.5013
_cell_length_c       11.0188
_cell_angle_alpha    87.3847
_cell_angle_beta     77.2332
_cell_angle_gamma    79.8742

_space_group_name_H-M_alt    "P 1"
_space_group_IT_number       1

loop_
  _space_group_symop_operation_xyz
  'x, y, z'

loop_
  _atom_site_type_symbol
  _atom_site_label
  _atom_site_symmetry_multiplicity
  _atom_site_fract_x
  _atom_site_fract_y
  _atom_site_fract_z
  _atom_site_occupancy
  Cd  Cd1       1.0  0.02124  0.92205  0.34117  1.0000
  Cd  Cd2       1.0  0.97875  0.07795  0.65881  1.0000
  Cd  Cd3       1.0  0.14067  0.57211  0.36307  1.0000
  Cd  Cd4       1.0  0.85932  0.42790  0.63693  1.0000
  H   H1        1.0  0.54576  0.27892  0.98793  1.0000
  H   H2        1.0  0.45423  0.72108  0.01207  1.0000
  H   H3        1.0  0.03359  0.22737  0.89412  1.0000
  H   H4        1.0  0.96641  0.77263  0.10587  1.0000
  H   H5        1.0  0.80500  0.13284  0.32320  1.0000
  H   H6        1.0  0.19499  0.86716  0.67680  1.0000
  H   H7        1.0  0.79745  0.05821  0.21285  1.0000
  H   H8        1.0  0.20255  0.94180  0.78715  1.0000
  H   H9        1.0  0.86089  0.71600  0.28481  1.0000
  H   H10       1.0  0.13912  0.28400  0.71519  1.0000
  H   H11       1.0  0.82248  0.74829  0.43501  1.0000
  H   H12       1.0  0.17752  0.25171  0.56499  1.0000
  H   H13       1.0  0.21544  0.75213  0.49925  1.0000
  H   H14       1.0  0.78456  0.24787  0.50075  1.0000
  H   H15       1.0  0.33365  0.75951  0.35942  1.0000
  H   H16       1.0  0.66635  0.24050  0.64057  1.0000
  H   H17       1.0  0.34433  0.44564  0.51217  1.0000
  H   H18       1.0  0.65562  0.55436  0.48785  1.0000
  H   H19       1.0  0.35045  0.35347  0.41081  1.0000
  H   H20       1.0  0.64955  0.64652  0.58920  1.0000
  H   H21       1.0  0.34374  0.05247  0.90178  1.0000
  H   H22       1.0  0.65627  0.94752  0.09821  1.0000
  H   H23       1.0  0.43283  0.23973  0.20499  1.0000
  H   H24       1.0  0.56717  0.76028  0.79500  1.0000
  H   H25       1.0  0.93346  0.25508  0.11154  1.0000
  H   H26       1.0  0.06654  0.74493  0.88846  1.0000
  H   H27       1.0  0.29398  0.45139  0.89268  1.0000
  H   H28       1.0  0.70601  0.54862  0.10733  1.0000
  C   C1        1.0  0.14789  0.91310  0.04735  1.0000
  C   C2        1.0  0.85212  0.08689  0.95265  1.0000
  C   C3        1.0  0.22886  0.00681  0.08802  1.0000
  C   C4        1.0  0.77114  0.99319  0.91198  1.0000
  C   C5        1.0  0.32585  0.06939  0.00058  1.0000
  C   C6        1.0  0.67416  0.93060  0.99942  1.0000
  C   C7        1.0  0.40439  0.15448  0.04021  1.0000
  C   C8        1.0  0.59561  0.84552  0.95978  1.0000
  C   C9        1.0  0.37613  0.17427  0.16952  1.0000
  C   C10       1.0  0.62388  0.82573  0.83047  1.0000
  C   C11       1.0  0.27238  0.10960  0.25039  1.0000
  C   C12       1.0  0.72763  0.89041  0.74960  1.0000
  C   C13       1.0  0.22286  0.13423  0.38839  1.0000
  C   C14       1.0  0.77714  0.86577  0.61159  1.0000
  C   C15       1.0  0.92598  0.36091  0.33679  1.0000
  C   C16       1.0  0.07402  0.63909  0.66322  1.0000
  C   C17       1.0  0.02169  0.38317  0.20686  1.0000
  C   C18       1.0  0.97831  0.61683  0.79314  1.0000
  C   C19       1.0  0.01365  0.32111  0.10366  1.0000
  C   C20       1.0  0.98634  0.67890  0.89634  1.0000
  C   C21       1.0  0.11308  0.34495  0.98741  1.0000
  C   C22       1.0  0.88691  0.65506  0.01259  1.0000
  C   C23       1.0  0.21437  0.43074  0.98010  1.0000
  C   C24       1.0  0.78562  0.56926  0.01990  1.0000
  C   C25       1.0  0.21309  0.48888  0.08800  1.0000
  C   C26       1.0  0.78690  0.51112  0.91200  1.0000
  C   C27       1.0  0.31646  0.58414  0.08794  1.0000
  C   C28       1.0  0.68354  0.41587  0.91207  1.0000
  N   N1        1.0  0.20233  0.02600  0.21096  1.0000
  N   N2        1.0  0.79768  0.97399  0.78903  1.0000
  N   N3        1.0  0.11956  0.46513  0.19857  1.0000
  N   N4        1.0  0.88044  0.53487  0.80144  1.0000
  O   O1        1.0  0.06226  0.85709  0.13465  1.0000
  O   O2        1.0  0.93775  0.14290  0.86536  1.0000
  O   O3        1.0  0.16548  0.89399  0.93403  1.0000
  O   O4        1.0  0.83451  0.10599  0.06599  1.0000
  O   O5        1.0  0.49897  0.20999  0.95401  1.0000
  O   O6        1.0  0.50104  0.79001  0.04598  1.0000
  O   O7        1.0  0.27930  0.21551  0.43090  1.0000
  O   O8        1.0  0.72071  0.78448  0.56910  1.0000
  O   O9        1.0  0.12133  0.07324  0.45325  1.0000
  O   O10       1.0  0.87868  0.92676  0.54674  1.0000
  O   O11       1.0  0.93806  0.42947  0.42190  1.0000
  O   O12       1.0  0.06196  0.57052  0.57811  1.0000
  O   O13       1.0  0.84256  0.27803  0.35555  1.0000
  O   O14       1.0  0.15744  0.72197  0.64446  1.0000
  O   O15       1.0  0.11546  0.28810  0.88379  1.0000
  O   O16       1.0  0.88455  0.71191  0.11620  1.0000
  O   O17       1.0  0.38295  0.62314  0.98280  1.0000
  O   O18       1.0  0.61704  0.37687  0.01720  1.0000
  O   O19       1.0  0.32838  0.62039  0.19224  1.0000
  O   O20       1.0  0.67164  0.37961  0.80776  1.0000
  O   O21       1.0  0.79064  0.05274  0.30446  1.0000
  O   O22       1.0  0.20935  0.94726  0.69554  1.0000
  O   O23       1.0  0.91016  0.72809  0.35542  1.0000
  O   O24       1.0  0.08984  0.27191  0.64458  1.0000
  O   O25       1.0  0.22034  0.76516  0.40652  1.0000
  O   O26       1.0  0.77966  0.23484  0.59348  1.0000
  O   O27       1.0  0.36678  0.43535  0.42234  1.0000
  O   O28       1.0  0.63322  0.56465  0.57768  1.0000
