data_image0
_chemical_formula_structural       Cu2H24C20S4N16
_chemical_formula_sum              "Cu2 H24 C20 S4 N16"
_cell_length_a       8.68231
_cell_length_b       9.16997
_cell_length_c       9.55753
_cell_angle_alpha    108.607
_cell_angle_beta     90.0001
_cell_angle_gamma    90.0002

_space_group_name_H-M_alt    "P 1"
_space_group_IT_number       1

loop_
  _space_group_symop_operation_xyz
  'x, y, z'

loop_
  _atom_site_type_symbol
  _atom_site_label
  _atom_site_symmetry_multiplicity
  _atom_site_fract_x
  _atom_site_fract_y
  _atom_site_fract_z
  _atom_site_occupancy
  Cu  Cu1       1.0  1.00000  0.00000  0.00000  1.0000
  Cu  Cu2       1.0  0.50000  0.50000  1.00000  1.0000
  H   H1        1.0  0.95100  0.06501  0.68332  1.0000
  H   H2        1.0  0.45100  0.43498  0.31668  1.0000
  H   H3        1.0  0.04900  0.93499  0.31668  1.0000
  H   H4        1.0  0.54901  0.56501  0.68332  1.0000
  H   H5        1.0  0.32399  0.86428  0.83790  1.0000
  H   H6        1.0  0.82398  0.63572  0.16210  1.0000
  H   H7        1.0  0.67602  0.13573  0.16210  1.0000
  H   H8        1.0  0.17602  0.36429  0.83791  1.0000
  H   H9        1.0  0.35665  0.71508  0.45535  1.0000
  H   H10       1.0  0.85665  0.78492  0.54464  1.0000
  H   H11       1.0  0.64335  0.28492  0.54465  1.0000
  H   H12       1.0  0.14336  0.21508  0.45535  1.0000
  H   H13       1.0  0.48797  0.79579  0.60353  1.0000
  H   H14       1.0  0.98797  0.70420  0.39647  1.0000
  H   H15       1.0  0.51203  0.20421  0.39647  1.0000
  H   H16       1.0  0.01203  0.29579  0.60353  1.0000
  H   H17       1.0  0.37796  0.94713  0.37653  1.0000
  H   H18       1.0  0.87795  0.55287  0.62347  1.0000
  H   H19       1.0  0.62204  0.05288  0.62348  1.0000
  H   H20       1.0  0.12204  0.44713  0.37653  1.0000
  H   H21       1.0  0.55683  0.85770  0.37474  1.0000
  H   H22       1.0  0.05683  0.64230  0.62527  1.0000
  H   H23       1.0  0.44317  0.14230  0.62527  1.0000
  H   H24       1.0  0.94317  0.35770  0.37473  1.0000
  C   C1        1.0  0.05941  0.00859  0.68934  1.0000
  C   C2        1.0  0.55940  0.49141  0.31066  1.0000
  C   C3        1.0  0.94059  0.99141  0.31066  1.0000
  C   C4        1.0  0.44060  0.50859  0.68934  1.0000
  C   C5        1.0  0.24702  0.90564  0.76946  1.0000
  C   C6        1.0  0.74701  0.59436  0.23054  1.0000
  C   C7        1.0  0.75298  0.09436  0.23055  1.0000
  C   C8        1.0  0.25299  0.40564  0.76946  1.0000
  C   C9        1.0  0.40087  0.82306  0.53239  1.0000
  C   C10       1.0  0.90086  0.67694  0.46761  1.0000
  C   C11       1.0  0.59913  0.17694  0.46761  1.0000
  C   C12       1.0  0.09914  0.32306  0.53240  1.0000
  C   C13       1.0  0.46699  0.92472  0.44889  1.0000
  C   C14       1.0  0.96699  0.57528  0.55111  1.0000
  C   C15       1.0  0.53301  0.07528  0.55111  1.0000
  C   C16       1.0  0.03301  0.42472  0.44889  1.0000
  C   C17       1.0  0.12848  0.72355  0.06984  1.0000
  C   C18       1.0  0.62848  0.77645  0.93016  1.0000
  C   C19       1.0  0.87152  0.27645  0.93016  1.0000
  C   C20       1.0  0.37153  0.22355  0.06983  1.0000
  S   S1        1.0  0.19540  0.61642  0.16088  1.0000
  S   S2        1.0  0.69539  0.88358  0.83911  1.0000
  S   S3        1.0  0.80460  0.38358  0.83912  1.0000
  S   S4        1.0  0.30461  0.11641  0.16089  1.0000
  N   N1        1.0  0.27376  0.89755  0.62891  1.0000
  N   N2        1.0  0.77376  0.60245  0.37108  1.0000
  N   N3        1.0  0.72624  0.10246  0.37109  1.0000
  N   N4        1.0  0.22624  0.39755  0.62891  1.0000
  N   N5        1.0  0.15555  0.96215  0.57574  1.0000
  N   N6        1.0  0.65554  0.53785  0.42426  1.0000
  N   N7        1.0  0.84445  0.03785  0.42426  1.0000
  N   N8        1.0  0.34446  0.46215  0.57574  1.0000
  N   N9        1.0  0.11108  0.97545  0.81042  1.0000
  N   N10       1.0  0.61108  0.52455  0.18958  1.0000
  N   N11       1.0  0.88892  0.02456  0.18958  1.0000
  N   N12       1.0  0.38892  0.47545  0.81042  1.0000
  N   N13       1.0  0.07740  0.79860  0.99945  1.0000
  N   N14       1.0  0.57741  0.70140  0.00055  1.0000
  N   N15       1.0  0.92260  0.20139  0.00056  1.0000
  N   N16       1.0  0.42259  0.29859  0.99945  1.0000
