data_image0
_chemical_formula_structural       Cu2H22C18S2N8O10F6
_chemical_formula_sum              "Cu2 H22 C18 S2 N8 O10 F6"
_cell_length_a       5.51333
_cell_length_b       10.16
_cell_length_c       13.1473
_cell_angle_alpha    93.0991
_cell_angle_beta     88.8307
_cell_angle_gamma    109.351

_space_group_name_H-M_alt    "P 1"
_space_group_IT_number       1

loop_
  _space_group_symop_operation_xyz
  'x, y, z'

loop_
  _atom_site_type_symbol
  _atom_site_label
  _atom_site_symmetry_multiplicity
  _atom_site_fract_x
  _atom_site_fract_y
  _atom_site_fract_z
  _atom_site_occupancy
  Cu  Cu1       1.0  0.70916  0.90568  0.93405  1.0000
  Cu  Cu2       1.0  0.29084  0.09431  0.06595  1.0000
  H   H1        1.0  0.40427  0.56306  0.25620  1.0000
  H   H2        1.0  0.59571  0.43694  0.74379  1.0000
  H   H3        1.0  0.13373  0.60096  0.30204  1.0000
  H   H4        1.0  0.86627  0.39904  0.69797  1.0000
  H   H5        1.0  0.44019  0.69992  0.35008  1.0000
  H   H6        1.0  0.55983  0.30007  0.64991  1.0000
  H   H7        1.0  0.88463  0.54014  0.07149  1.0000
  H   H8        1.0  0.11534  0.45986  0.92851  1.0000
  H   H9        1.0  0.56101  0.47654  0.11570  1.0000
  H   H10       1.0  0.43899  0.52346  0.88431  1.0000
  H   H11       1.0  0.79605  0.60054  0.19146  1.0000
  H   H12       1.0  0.20394  0.39946  0.80854  1.0000
  H   H13       1.0  0.95867  0.74375  0.37365  1.0000
  H   H14       1.0  0.04136  0.25627  0.62637  1.0000
  H   H15       1.0  0.24102  0.88185  0.41112  1.0000
  H   H16       1.0  0.75903  0.11817  0.58889  1.0000
  H   H17       1.0  0.93824  0.90923  0.41372  1.0000
  H   H18       1.0  0.06180  0.09080  0.58629  1.0000
  H   H19       1.0  0.87050  0.02424  0.29424  1.0000
  H   H20       1.0  0.12949  0.97577  0.70577  1.0000
  H   H21       1.0  0.95967  0.70121  0.85649  1.0000
  H   H22       1.0  0.04032  0.29879  0.14352  1.0000
  C   C1        1.0  0.36936  0.74994  0.19910  1.0000
  C   C2        1.0  0.63062  0.25005  0.80090  1.0000
  C   C3        1.0  0.26175  0.85877  0.19342  1.0000
  C   C4        1.0  0.73825  0.14124  0.80658  1.0000
  C   C5        1.0  0.33588  0.64902  0.28055  1.0000
  C   C6        1.0  0.66412  0.35097  0.71945  1.0000
  C   C7        1.0  0.51474  0.75921  0.10912  1.0000
  C   C8        1.0  0.48524  0.24077  0.89088  1.0000
  C   C9        1.0  0.67907  0.68518  0.06381  1.0000
  C   C10       1.0  0.32092  0.31481  0.93618  1.0000
  C   C11       1.0  0.73402  0.56916  0.11251  1.0000
  C   C12       1.0  0.26596  0.43083  0.88749  1.0000
  C   C13       1.0  0.09967  0.90350  0.26452  1.0000
  C   C14       1.0  0.90035  0.09650  0.73548  1.0000
  C   C15       1.0  0.05682  0.85683  0.37139  1.0000
  C   C16       1.0  0.94321  0.14318  0.62862  1.0000
  C   C17       1.0  0.37935  0.65685  0.59316  1.0000
  C   C18       1.0  0.62066  0.34316  0.40683  1.0000
  S   S1        1.0  0.30766  0.76427  0.70153  1.0000
  S   S2        1.0  0.69235  0.23572  0.29846  1.0000
  N   N1        1.0  0.49379  0.86625  0.05558  1.0000
  N   N2        1.0  0.50617  0.13375  0.94443  1.0000
  N   N3        1.0  0.34392  0.92513  0.10448  1.0000
  N   N4        1.0  0.65606  0.07488  0.89552  1.0000
  N   N5        1.0  0.77463  0.73253  0.97620  1.0000
  N   N6        1.0  0.22535  0.26746  0.02380  1.0000
  N   N7        1.0  0.98380  0.99150  0.24048  1.0000
  N   N8        1.0  0.01620  0.00850  0.75952  1.0000
  O   O1        1.0  0.92694  0.66631  0.92701  1.0000
  O   O2        1.0  0.07304  0.33369  0.07299  1.0000
  O   O3        1.0  0.98671  0.04967  0.15266  1.0000
  O   O4        1.0  0.01328  0.95032  0.84734  1.0000
  O   O5        1.0  0.34228  0.89707  0.65407  1.0000
  O   O6        1.0  0.65771  0.10293  0.34592  1.0000
  O   O7        1.0  0.04165  0.68631  0.72799  1.0000
  O   O8        1.0  0.95837  0.31369  0.27200  1.0000
  O   O9        1.0  0.49751  0.76877  0.77818  1.0000
  O   O10       1.0  0.50250  0.23124  0.22181  1.0000
  F   F1        1.0  0.61811  0.71959  0.55505  1.0000
  F   F2        1.0  0.38190  0.28041  0.44494  1.0000
  F   F3        1.0  0.36621  0.52845  0.62279  1.0000
  F   F4        1.0  0.63382  0.47156  0.37720  1.0000
  F   F5        1.0  0.20652  0.63838  0.51726  1.0000
  F   F6        1.0  0.79351  0.36162  0.48274  1.0000
