data_image0
_chemical_formula_structural       Sn4H24C28N4O22
_chemical_formula_sum              "Sn4 H24 C28 N4 O22"
_cell_length_a       5.24005
_cell_length_b       11.3146
_cell_length_c       15.0732
_cell_angle_alpha    89.9984
_cell_angle_beta     98.6
_cell_angle_gamma    89.9978

_space_group_name_H-M_alt    "P 1"
_space_group_IT_number       1

loop_
  _space_group_symop_operation_xyz
  'x, y, z'

loop_
  _atom_site_type_symbol
  _atom_site_label
  _atom_site_symmetry_multiplicity
  _atom_site_fract_x
  _atom_site_fract_y
  _atom_site_fract_z
  _atom_site_occupancy
  Sn  Sn1       1.0  0.06111  0.76710  0.89179  1.0000
  Sn  Sn2       1.0  0.93892  0.26712  0.10821  1.0000
  Sn  Sn3       1.0  0.45255  0.78305  0.66929  1.0000
  Sn  Sn4       1.0  0.54751  0.28306  0.33070  1.0000
  H   H1        1.0  0.11058  0.02528  0.48336  1.0000
  H   H2        1.0  0.88939  0.52524  0.51664  1.0000
  H   H3        1.0  0.26730  0.54698  0.08998  1.0000
  H   H4        1.0  0.73268  0.04696  0.91003  1.0000
  H   H5        1.0  0.49656  0.51719  0.65304  1.0000
  H   H6        1.0  0.50346  0.01719  0.34695  1.0000
  H   H7        1.0  0.79789  0.50624  0.66039  1.0000
  H   H8        1.0  0.20214  0.00624  0.33962  1.0000
  H   H9        1.0  0.94420  0.05416  0.84011  1.0000
  H   H10       1.0  0.05576  0.55419  0.15989  1.0000
  H   H11       1.0  0.72481  0.88741  0.80361  1.0000
  H   H12       1.0  0.27517  0.38743  0.19639  1.0000
  H   H13       1.0  0.38374  0.26684  0.69049  1.0000
  H   H14       1.0  0.61620  0.76686  0.30953  1.0000
  H   H15       1.0  0.69909  0.32516  0.58729  1.0000
  H   H16       1.0  0.30082  0.82515  0.41273  1.0000
  H   H17       1.0  0.93739  0.17162  0.51858  1.0000
  H   H18       1.0  0.06255  0.67158  0.48143  1.0000
  H   H19       1.0  0.99344  0.31185  0.77715  1.0000
  H   H20       1.0  0.00659  0.81186  0.22284  1.0000
  H   H21       1.0  0.64888  0.25210  0.86949  1.0000
  H   H22       1.0  0.35115  0.75210  0.13050  1.0000
  H   H23       1.0  0.47455  0.40222  0.96422  1.0000
  H   H24       1.0  0.52546  0.90223  0.03577  1.0000
  C   C1        1.0  0.26939  0.03838  0.73611  1.0000
  C   C2        1.0  0.73060  0.53841  0.26390  1.0000
  C   C3        1.0  0.45716  0.08056  0.67526  1.0000
  C   C4        1.0  0.54280  0.58057  0.32475  1.0000
  C   C5        1.0  0.49247  0.20086  0.65900  1.0000
  C   C6        1.0  0.50748  0.70087  0.34101  1.0000
  C   C7        1.0  0.66662  0.23272  0.60206  1.0000
  C   C8        1.0  0.33333  0.73271  0.39795  1.0000
  C   C9        1.0  0.80111  0.14497  0.56305  1.0000
  C   C10       1.0  0.19885  0.64495  0.43695  1.0000
  C   C11       1.0  0.75303  0.02694  0.58207  1.0000
  C   C12       1.0  0.24693  0.52692  0.41793  1.0000
  C   C13       1.0  0.88108  0.92383  0.54474  1.0000
  C   C14       1.0  0.11893  0.42380  0.45526  1.0000
  C   C15       1.0  0.18226  0.54023  0.76494  1.0000
  C   C16       1.0  0.81778  0.04024  0.23506  1.0000
  C   C17       1.0  0.99614  0.49246  0.82362  1.0000
  C   C18       1.0  0.00389  0.99247  0.17638  1.0000
  C   C19       1.0  0.91113  0.37535  0.81921  1.0000
  C   C20       1.0  0.08890  0.87536  0.18078  1.0000
  C   C21       1.0  0.72193  0.34230  0.87039  1.0000
  C   C22       1.0  0.27809  0.84231  0.12960  1.0000
  C   C23       1.0  0.62484  0.42584  0.92467  1.0000
  C   C24       1.0  0.37519  0.92586  0.07532  1.0000
  C   C25       1.0  0.72389  0.54060  0.92710  1.0000
  C   C26       1.0  0.27613  0.04062  0.07290  1.0000
  C   C27       1.0  0.62560  0.63898  0.98085  1.0000
  C   C28       1.0  0.37442  0.13901  0.01915  1.0000
  N   N1        1.0  0.58336  0.99675  0.63679  1.0000
  N   N2        1.0  0.41664  0.49675  0.36321  1.0000
  N   N3        1.0  0.90596  0.57130  0.87782  1.0000
  N   N4        1.0  0.09407  0.07132  0.12218  1.0000
  O   O1        1.0  0.23557  0.92604  0.74066  1.0000
  O   O2        1.0  0.76444  0.42608  0.25934  1.0000
  O   O3        1.0  0.15684  0.11518  0.77605  1.0000
  O   O4        1.0  0.84312  0.61522  0.22395  1.0000
  O   O5        1.0  0.07037  0.94281  0.49575  1.0000
  O   O6        1.0  0.92963  0.44277  0.50424  1.0000
  O   O7        1.0  0.82374  0.82073  0.55851  1.0000
  O   O8        1.0  0.17629  0.32072  0.44149  1.0000
  O   O9        1.0  0.25950  0.64666  0.78106  1.0000
  O   O10       1.0  0.74055  0.14668  0.21894  1.0000
  O   O11       1.0  0.24050  0.47499  0.70302  1.0000
  O   O12       1.0  0.75953  0.97499  0.29697  1.0000
  O   O13       1.0  0.42407  0.62042  0.01484  1.0000
  O   O14       1.0  0.57597  0.12045  0.98516  1.0000
  O   O15       1.0  0.74741  0.73738  0.98409  1.0000
  O   O16       1.0  0.25261  0.23741  0.01591  1.0000
  O   O17       1.0  0.64921  0.54477  0.62553  1.0000
  O   O18       1.0  0.35083  0.04477  0.37447  1.0000
  O   O19       1.0  0.82097  0.00286  0.86690  1.0000
  O   O20       1.0  0.17898  0.50288  0.13310  1.0000
  O   O21       1.0  0.73593  0.80304  0.78345  1.0000
  O   O22       1.0  0.26408  0.30306  0.21654  1.0000
