data_image0
_chemical_formula_structural       Cu2H30C40N14O12
_chemical_formula_sum              "Cu2 H30 C40 N14 O12"
_cell_length_a       7.54193
_cell_length_b       11.671
_cell_length_c       12.2931
_cell_angle_alpha    75.3365
_cell_angle_beta     72.7796
_cell_angle_gamma    84.361

_space_group_name_H-M_alt    "P 1"
_space_group_IT_number       1

loop_
  _space_group_symop_operation_xyz
  'x, y, z'

loop_
  _atom_site_type_symbol
  _atom_site_label
  _atom_site_symmetry_multiplicity
  _atom_site_fract_x
  _atom_site_fract_y
  _atom_site_fract_z
  _atom_site_occupancy
  Cu  Cu1       1.0  0.50001  0.49999  0.00000  1.0000
  Cu  Cu2       1.0  0.50000  1.00000  0.50000  1.0000
  H   H1        1.0  0.82042  0.30412  0.64718  1.0000
  H   H2        1.0  0.17957  0.69589  0.35282  1.0000
  H   H3        1.0  0.75024  0.50734  0.67459  1.0000
  H   H4        1.0  0.24976  0.49267  0.32540  1.0000
  H   H5        1.0  0.68448  0.66880  0.51158  1.0000
  H   H6        1.0  0.31552  0.33121  0.48841  1.0000
  H   H7        1.0  0.69815  0.62289  0.32322  1.0000
  H   H8        1.0  0.30185  0.37712  0.67677  1.0000
  H   H9        1.0  0.79742  0.32864  0.25203  1.0000
  H   H10       1.0  0.20260  0.67136  0.74797  1.0000
  H   H11       1.0  0.66209  0.46265  0.22822  1.0000
  H   H12       1.0  0.33792  0.53735  0.77178  1.0000
  H   H13       1.0  0.77392  0.16135  0.54720  1.0000
  H   H14       1.0  0.22608  0.83866  0.45280  1.0000
  H   H15       1.0  0.78904  0.19652  0.39581  1.0000
  H   H16       1.0  0.21096  0.80348  0.60419  1.0000
  H   H17       1.0  0.17512  0.70772  0.01520  1.0000
  H   H18       1.0  0.82490  0.29228  0.98480  1.0000
  H   H19       1.0  0.14776  0.33894  0.14839  1.0000
  H   H20       1.0  0.85225  0.66105  0.85162  1.0000
  H   H21       1.0  0.44662  0.19324  0.26492  1.0000
  H   H22       1.0  0.55338  0.80676  0.73508  1.0000
  H   H23       1.0  0.06594  0.06895  0.59634  1.0000
  H   H24       1.0  0.93406  0.93106  0.40366  1.0000
  H   H25       1.0  0.53479  0.78559  0.24812  1.0000
  H   H26       1.0  0.46520  0.21441  0.75188  1.0000
  H   H27       1.0  0.82129  0.10664  0.04823  1.0000
  H   H28       1.0  0.17870  0.89336  0.95177  1.0000
  H   H29       1.0  0.69736  0.86219  0.87146  1.0000
  H   H30       1.0  0.30264  0.13780  0.12854  1.0000
  C   C1        1.0  0.77079  0.43888  0.37657  1.0000
  C   C2        1.0  0.22921  0.56112  0.62342  1.0000
  C   C3        1.0  0.80288  0.34756  0.46906  1.0000
  C   C4        1.0  0.19712  0.65245  0.53094  1.0000
  C   C5        1.0  0.79522  0.37451  0.57535  1.0000
  C   C6        1.0  0.20477  0.62550  0.42465  1.0000
  C   C7        1.0  0.75644  0.48929  0.59090  1.0000
  C   C8        1.0  0.24356  0.51072  0.40909  1.0000
  C   C9        1.0  0.72029  0.57895  0.50016  1.0000
  C   C10       1.0  0.27971  0.42106  0.49983  1.0000
  C   C11       1.0  0.72690  0.55358  0.39437  1.0000
  C   C12       1.0  0.27310  0.44643  0.60561  1.0000
  C   C13       1.0  0.78378  0.42186  0.25628  1.0000
  C   C14       1.0  0.21623  0.57814  0.74372  1.0000
  C   C15       1.0  0.84051  0.21950  0.46210  1.0000
  C   C16       1.0  0.15949  0.78051  0.53790  1.0000
  C   C17       1.0  0.12223  0.62058  0.06130  1.0000
  C   C18       1.0  0.87779  0.37942  0.93870  1.0000
  C   C19       1.0  0.11325  0.43232  0.12579  1.0000
  C   C20       1.0  0.88676  0.56768  0.87421  1.0000
  C   C21       1.0  0.31947  0.17815  0.33636  1.0000
  C   C22       1.0  0.68053  0.82185  0.66364  1.0000
  C   C23       1.0  0.12977  0.11280  0.50558  1.0000
  C   C24       1.0  0.87023  0.88720  0.49442  1.0000
  C   C25       1.0  0.61052  0.81041  0.06091  1.0000
  C   C26       1.0  0.38948  0.18959  0.93909  1.0000
  C   C27       1.0  0.60069  0.84387  0.16406  1.0000
  C   C28       1.0  0.39929  0.15613  0.83595  1.0000
  C   C29       1.0  0.67444  0.95092  0.15985  1.0000
  C   C30       1.0  0.32555  0.04908  0.84015  1.0000
  C   C31       1.0  0.76085  0.02457  0.05168  1.0000
  C   C32       1.0  0.23913  0.97543  0.94832  1.0000
  C   C33       1.0  0.76505  0.99113  0.94983  1.0000
  C   C34       1.0  0.23495  0.00886  0.05018  1.0000
  C   C35       1.0  0.69080  0.88554  0.95263  1.0000
  C   C36       1.0  0.30919  0.11446  0.04738  1.0000
  C   C37       1.0  0.54034  0.69229  0.06701  1.0000
  C   C38       1.0  0.45967  0.30771  0.93300  1.0000
  C   C39       1.0  0.65793  0.99012  0.27019  1.0000
  C   C40       1.0  0.34206  0.00987  0.72981  1.0000
  N   N1        1.0  0.94678  0.48095  0.16807  1.0000
  N   N2        1.0  0.05324  0.51905  0.83192  1.0000
  N   N3        1.0  0.94937  0.60123  0.12750  1.0000
  N   N4        1.0  0.05065  0.39877  0.87251  1.0000
  N   N5        1.0  0.22856  0.51885  0.05730  1.0000
  N   N6        1.0  0.77146  0.48115  0.94270  1.0000
  N   N7        1.0  0.03888  0.18578  0.43559  1.0000
  N   N8        1.0  0.96113  0.81422  0.56440  1.0000
  N   N9        1.0  0.15716  0.22833  0.32812  1.0000
  N   N10       1.0  0.84285  0.77167  0.67188  1.0000
  N   N11       1.0  0.30850  0.10551  0.44445  1.0000
  N   N12       1.0  0.69150  0.89449  0.55556  1.0000
  N   N13       1.0  0.84632  0.06957  0.83526  1.0000
  N   N14       1.0  0.15367  0.93043  0.16475  1.0000
  O   O1        1.0  0.53190  0.67558  0.96783  1.0000
  O   O2        1.0  0.46811  0.32441  0.03218  1.0000
  O   O3        1.0  0.49921  0.61703  0.16221  1.0000
  O   O4        1.0  0.50079  0.38297  0.83779  1.0000
  O   O5        1.0  0.54888  0.92712  0.36415  1.0000
  O   O6        1.0  0.45111  0.07287  0.63585  1.0000
  O   O7        1.0  0.74182  0.07953  0.26616  1.0000
  O   O8        1.0  0.25817  0.92046  0.73384  1.0000
  O   O9        1.0  0.92727  0.15876  0.83105  1.0000
  O   O10       1.0  0.07273  0.84124  0.16895  1.0000
  O   O11       1.0  0.82839  0.04281  0.74716  1.0000
  O   O12       1.0  0.17160  0.95719  0.25284  1.0000
