data_image0
_chemical_formula_structural       Gd2H32C32N20Cl2O12
_chemical_formula_sum              "Gd2 H32 C32 N20 Cl2 O12"
_cell_length_a       8.87356
_cell_length_b       10.9371
_cell_length_c       12.8785
_cell_angle_alpha    115.129
_cell_angle_beta     106.118
_cell_angle_gamma    89.9877

_space_group_name_H-M_alt    "P 1"
_space_group_IT_number       1

loop_
  _space_group_symop_operation_xyz
  'x, y, z'

loop_
  _atom_site_type_symbol
  _atom_site_label
  _atom_site_symmetry_multiplicity
  _atom_site_fract_x
  _atom_site_fract_y
  _atom_site_fract_z
  _atom_site_occupancy
  Gd  Gd1       1.0  0.74996  0.43945  0.00016  1.0000
  Gd  Gd2       1.0  0.25004  0.56055  0.99984  1.0000
  H   H1        1.0  0.48248  0.27838  0.99456  1.0000
  H   H2        1.0  0.01764  0.28402  0.00557  1.0000
  H   H3        1.0  0.51752  0.72162  0.00544  1.0000
  H   H4        1.0  0.98237  0.71598  0.99443  1.0000
  H   H5        1.0  0.64092  0.23398  0.06422  1.0000
  H   H6        1.0  0.85930  0.16993  0.93585  1.0000
  H   H7        1.0  0.35909  0.76602  0.93578  1.0000
  H   H8        1.0  0.14070  0.83007  0.06415  1.0000
  H   H9        1.0  0.52585  0.71204  0.35330  1.0000
  H   H10       1.0  0.97410  0.35779  0.64643  1.0000
  H   H11       1.0  0.47417  0.28797  0.64670  1.0000
  H   H12       1.0  0.02590  0.64221  0.35356  1.0000
  H   H13       1.0  0.46805  0.53794  0.31169  1.0000
  H   H14       1.0  0.03185  0.22577  0.68873  1.0000
  H   H15       1.0  0.53194  0.46206  0.68831  1.0000
  H   H16       1.0  0.96815  0.77423  0.31126  1.0000
  H   H17       1.0  0.00021  0.94114  0.61947  1.0000
  H   H18       1.0  0.50159  0.32036  0.38020  1.0000
  H   H19       1.0  0.99979  0.05886  0.38053  1.0000
  H   H20       1.0  0.49840  0.67964  0.61979  1.0000
  H   H21       1.0  0.24095  0.09296  0.78747  1.0000
  H   H22       1.0  0.26113  0.30512  0.21246  1.0000
  H   H23       1.0  0.75904  0.90704  0.21254  1.0000
  H   H24       1.0  0.73887  0.69487  0.78753  1.0000
  H   H25       1.0  0.40439  0.00348  0.92383  1.0000
  H   H26       1.0  0.09636  0.07989  0.07623  1.0000
  H   H27       1.0  0.59561  0.99652  0.07618  1.0000
  H   H28       1.0  0.90363  0.92011  0.92376  1.0000
  H   H29       1.0  0.12269  0.62804  0.73663  1.0000
  H   H30       1.0  0.37664  0.89050  0.26309  1.0000
  H   H31       1.0  0.87731  0.37196  0.26337  1.0000
  H   H32       1.0  0.62335  0.10950  0.73692  1.0000
  C   C1        1.0  0.60923  0.57018  0.21160  1.0000
  C   C2        1.0  0.89068  0.35850  0.78843  1.0000
  C   C3        1.0  0.39077  0.42982  0.78840  1.0000
  C   C4        1.0  0.10932  0.64150  0.21157  1.0000
  C   C5        1.0  0.56579  0.61148  0.32757  1.0000
  C   C6        1.0  0.93411  0.28332  0.67251  1.0000
  C   C7        1.0  0.43421  0.38852  0.67243  1.0000
  C   C8        1.0  0.06589  0.71668  0.32748  1.0000
  C   C9        1.0  0.90399  0.68383  0.56996  1.0000
  C   C10       1.0  0.59624  0.11265  0.42999  1.0000
  C   C11       1.0  0.09601  0.31617  0.43004  1.0000
  C   C12       1.0  0.40375  0.88735  0.57001  1.0000
  C   C13       1.0  0.04425  0.77231  0.66437  1.0000
  C   C14       1.0  0.45617  0.10685  0.33548  1.0000
  C   C15       1.0  0.95575  0.22769  0.33563  1.0000
  C   C16       1.0  0.54382  0.89315  0.66452  1.0000
  C   C17       1.0  0.07850  0.90515  0.67929  1.0000
  C   C18       1.0  0.42271  0.22487  0.32052  1.0000
  C   C19       1.0  0.92150  0.09484  0.32072  1.0000
  C   C20       1.0  0.57728  0.77513  0.67947  1.0000
  C   C21       1.0  0.21022  0.98908  0.77202  1.0000
  C   C22       1.0  0.29113  0.21654  0.22788  1.0000
  C   C23       1.0  0.78978  0.01092  0.22799  1.0000
  C   C24       1.0  0.70886  0.78346  0.77211  1.0000
  C   C25       1.0  0.30196  0.93932  0.84861  1.0000
  C   C26       1.0  0.19869  0.09055  0.15135  1.0000
  C   C27       1.0  0.69804  0.06068  0.15139  1.0000
  C   C28       1.0  0.80131  0.90945  0.84864  1.0000
  C   C29       1.0  0.14417  0.73014  0.74445  1.0000
  C   C30       1.0  0.35573  0.98492  0.25539  1.0000
  C   C31       1.0  0.85584  0.26985  0.25555  1.0000
  C   C32       1.0  0.64427  0.01508  0.74461  1.0000
  N   N1        1.0  0.81199  0.72057  0.48886  1.0000
  N   N2        1.0  0.68806  0.23059  0.51100  1.0000
  N   N3        1.0  0.18802  0.27943  0.51114  1.0000
  N   N4        1.0  0.31193  0.76941  0.48900  1.0000
  N   N5        1.0  0.69596  0.61711  0.42721  1.0000
  N   N6        1.0  0.80407  0.18906  0.57294  1.0000
  N   N7        1.0  0.30405  0.38289  0.57279  1.0000
  N   N8        1.0  0.19593  0.81094  0.42706  1.0000
  N   N9        1.0  0.71238  0.51909  0.46448  1.0000
  N   N10       1.0  0.78784  0.05383  0.53591  1.0000
  N   N11       1.0  0.28763  0.48091  0.53552  1.0000
  N   N12       1.0  0.21216  0.94617  0.46409  1.0000
  N   N13       1.0  0.84440  0.56036  0.55541  1.0000
  N   N14       1.0  0.65594  0.00393  0.44485  1.0000
  N   N15       1.0  0.15560  0.43964  0.44459  1.0000
  N   N16       1.0  0.34405  0.99608  0.55515  1.0000
  N   N17       1.0  0.26965  0.81254  0.83503  1.0000
  N   N18       1.0  0.23034  0.97723  0.16492  1.0000
  N   N19       1.0  0.73036  0.18745  0.16497  1.0000
  N   N20       1.0  0.76966  0.02277  0.83508  1.0000
  Cl  Cl1       1.0  0.75006  0.68908  0.00026  1.0000
  Cl  Cl2       1.0  0.24995  0.31092  0.99974  1.0000
  O   O1        1.0  0.50671  0.57605  0.12358  1.0000
  O   O2        1.0  0.99337  0.45245  0.87616  1.0000
  O   O3        1.0  0.49330  0.42395  0.87641  1.0000
  O   O4        1.0  0.00663  0.54755  0.12384  1.0000
  O   O5        1.0  0.74240  0.53114  0.20662  1.0000
  O   O6        1.0  0.75754  0.32479  0.79363  1.0000
  O   O7        1.0  0.25760  0.46885  0.79338  1.0000
  O   O8        1.0  0.24247  0.67520  0.20637  1.0000
  O   O9        1.0  0.59375  0.26538  0.99762  1.0000
  O   O10       1.0  0.90636  0.26793  0.00245  1.0000
  O   O11       1.0  0.40626  0.73461  0.00238  1.0000
  O   O12       1.0  0.09365  0.73207  0.99755  1.0000
