data_image0
_chemical_formula_structural       H36Ru2C44N2O12
_chemical_formula_sum              "H36 Ru2 C44 N2 O12"
_cell_length_a       9.31692
_cell_length_b       10.1932
_cell_length_c       10.6306
_cell_angle_alpha    93.0315
_cell_angle_beta     95.8001
_cell_angle_gamma    102.32

_space_group_name_H-M_alt    "P 1"
_space_group_IT_number       1

loop_
  _space_group_symop_operation_xyz
  'x, y, z'

loop_
  _atom_site_type_symbol
  _atom_site_label
  _atom_site_symmetry_multiplicity
  _atom_site_fract_x
  _atom_site_fract_y
  _atom_site_fract_z
  _atom_site_occupancy
  H   H1        1.0  0.07747  0.72184  0.90464  1.0000
  H   H2        1.0  0.92256  0.27792  0.09500  1.0000
  H   H3        1.0  0.18848  0.88728  0.94992  1.0000
  H   H4        1.0  0.81148  0.11242  0.04991  1.0000
  H   H5        1.0  0.01408  0.86760  0.85454  1.0000
  H   H6        1.0  0.98561  0.13228  0.14581  1.0000
  H   H7        1.0  0.83075  0.67682  0.86106  1.0000
  H   H8        1.0  0.16915  0.32325  0.13910  1.0000
  H   H9        1.0  0.56745  0.58549  0.86708  1.0000
  H   H10       1.0  0.43243  0.41501  0.13298  1.0000
  H   H11       1.0  0.44235  0.64073  0.05474  1.0000
  H   H12       1.0  0.55777  0.35946  0.94562  1.0000
  H   H13       1.0  0.59332  0.78809  0.23760  1.0000
  H   H14       1.0  0.40715  0.21155  0.76296  1.0000
  H   H15       1.0  0.28116  0.54291  0.71639  1.0000
  H   H16       1.0  0.71889  0.45660  0.28355  1.0000
  H   H17       1.0  0.14507  0.39448  0.65595  1.0000
  H   H18       1.0  0.85508  0.60498  0.34405  1.0000
  H   H19       1.0  0.14895  0.46244  0.81586  1.0000
  H   H20       1.0  0.85092  0.53732  0.18401  1.0000
  H   H21       1.0  0.92198  0.33263  0.72522  1.0000
  H   H22       1.0  0.07773  0.66702  0.27432  1.0000
  H   H23       1.0  0.65270  0.26735  0.70955  1.0000
  H   H24       1.0  0.34703  0.73283  0.29041  1.0000
  H   H25       1.0  0.49643  0.42775  0.63870  1.0000
  H   H26       1.0  0.50355  0.57254  0.36105  1.0000
  H   H27       1.0  0.62019  0.65692  0.58556  1.0000
  H   H28       1.0  0.38017  0.34325  0.41401  1.0000
  H   H29       1.0  0.76533  0.05671  0.76150  1.0000
  H   H30       1.0  0.23422  0.94406  0.23864  1.0000
  H   H31       1.0  0.63629  0.93328  0.92694  1.0000
  H   H32       1.0  0.36357  0.06642  0.07278  1.0000
  H   H33       1.0  0.38051  0.79525  0.87393  1.0000
  H   H34       1.0  0.61944  0.20432  0.12562  1.0000
  H   H35       1.0  0.24546  0.79634  0.65984  1.0000
  H   H36       1.0  0.75424  0.20411  0.33998  1.0000
  Ru  Ru1       1.0  0.88990  0.03078  0.52188  1.0000
  Ru  Ru2       1.0  0.11037  0.96916  0.47836  1.0000
  C   C1        1.0  0.87706  0.88601  0.27377  1.0000
  C   C2        1.0  0.12303  0.11368  0.72673  1.0000
  C   C3        1.0  0.79678  0.81096  0.15593  1.0000
  C   C4        1.0  0.20350  0.18881  0.84447  1.0000
  C   C5        1.0  0.86590  0.78210  0.04795  1.0000
  C   C6        1.0  0.13435  0.21761  0.95242  1.0000
  C   C7        1.0  0.07528  0.82708  0.93171  1.0000
  C   C8        1.0  0.92470  0.17259  0.06830  1.0000
  C   C9        1.0  0.78090  0.69970  0.94530  1.0000
  C   C10       1.0  0.21913  0.30030  0.05498  1.0000
  C   C11       1.0  0.63033  0.64849  0.94865  1.0000
  C   C12       1.0  0.36964  0.35172  0.05155  1.0000
  C   C13       1.0  0.56043  0.67952  0.05290  1.0000
  C   C14       1.0  0.43972  0.32050  0.94746  1.0000
  C   C15       1.0  0.64390  0.76110  0.15482  1.0000
  C   C16       1.0  0.35638  0.23867  0.84561  1.0000
  C   C17       1.0  0.90263  0.76016  0.58339  1.0000
  C   C18       1.0  0.09757  0.23980  0.41651  1.0000
  C   C19       1.0  0.83998  0.62427  0.62129  1.0000
  C   C20       1.0  0.16022  0.37570  0.37853  1.0000
  C   C21       1.0  0.92742  0.53295  0.66282  1.0000
  C   C22       1.0  0.07266  0.46685  0.33681  1.0000
  C   C23       1.0  0.16698  0.48763  0.71840  1.0000
  C   C24       1.0  0.83303  0.51195  0.28144  1.0000
  C   C25       1.0  0.85762  0.40511  0.69498  1.0000
  C   C26       1.0  0.14227  0.59475  0.30467  1.0000
  C   C27       1.0  0.70388  0.36799  0.68570  1.0000
  C   C28       1.0  0.29598  0.63210  0.31408  1.0000
  C   C29       1.0  0.61666  0.45718  0.64591  1.0000
  C   C30       1.0  0.38334  0.54300  0.35384  1.0000
  C   C31       1.0  0.68516  0.58448  0.61510  1.0000
  C   C32       1.0  0.31503  0.41563  0.38462  1.0000
  C   C33       1.0  0.57896  0.99858  0.61555  1.0000
  C   C34       1.0  0.42070  0.00216  0.38445  1.0000
  C   C35       1.0  0.65127  0.00069  0.74011  1.0000
  C   C36       1.0  0.34834  0.99989  0.25991  1.0000
  C   C37       1.0  0.57946  0.93143  0.83186  1.0000
  C   C38       1.0  0.42027  0.06856  0.16792  1.0000
  C   C39       1.0  0.43370  0.85413  0.80208  1.0000
  C   C40       1.0  0.56609  0.14578  0.19764  1.0000
  C   C41       1.0  0.35847  0.85393  0.68353  1.0000
  C   C42       1.0  0.64128  0.14641  0.31629  1.0000
  C   C43       1.0  0.57361  0.07027  0.41089  1.0000
  C   C44       1.0  0.42609  0.93039  0.58916  1.0000
  N   N1        1.0  0.65496  0.06197  0.52381  1.0000
  N   N2        1.0  0.34456  0.93894  0.47630  1.0000
  O   O1        1.0  0.80187  0.94268  0.34544  1.0000
  O   O2        1.0  0.19803  0.05672  0.65515  1.0000
  O   O3        1.0  0.01471  0.88654  0.30301  1.0000
  O   O4        1.0  0.98578  0.11435  0.69696  1.0000
  O   O5        1.0  0.01184  0.83914  0.04805  1.0000
  O   O6        1.0  0.98851  0.16018  0.95224  1.0000
  O   O7        1.0  0.82167  0.84775  0.58867  1.0000
  O   O8        1.0  0.17909  0.15263  0.41239  1.0000
  O   O9        1.0  0.03080  0.78620  0.54403  1.0000
  O   O10       1.0  0.96915  0.21353  0.45534  1.0000
  O   O11       1.0  0.07681  0.57686  0.67351  1.0000
  O   O12       1.0  0.92331  0.42272  0.32603  1.0000
