data_image0
_chemical_formula_structural       Zn4H18C24N10Cl4O2
_chemical_formula_sum              "Zn4 H18 C24 N10 Cl4 O2"
_cell_length_a       7.24517
_cell_length_b       7.24517
_cell_length_c       15.6378
_cell_angle_alpha    79.7717
_cell_angle_beta     79.7718
_cell_angle_gamma    64.8336

_space_group_name_H-M_alt    "P 1"
_space_group_IT_number       1

loop_
  _space_group_symop_operation_xyz
  'x, y, z'

loop_
  _atom_site_type_symbol
  _atom_site_label
  _atom_site_symmetry_multiplicity
  _atom_site_fract_x
  _atom_site_fract_y
  _atom_site_fract_z
  _atom_site_occupancy
  Zn  Zn1       1.0  0.73031  0.38354  0.33525  1.0000
  Zn  Zn2       1.0  0.61647  0.26969  0.16475  1.0000
  Zn  Zn3       1.0  0.26969  0.61646  0.66475  1.0000
  Zn  Zn4       1.0  0.38354  0.73031  0.83525  1.0000
  H   H1        1.0  0.93700  0.06300  0.25000  1.0000
  H   H2        1.0  0.06300  0.93700  0.75000  1.0000
  H   H3        1.0  0.74862  0.96355  0.39283  1.0000
  H   H4        1.0  0.03645  0.25138  0.10717  1.0000
  H   H5        1.0  0.25138  0.03645  0.60717  1.0000
  H   H6        1.0  0.96355  0.74862  0.89283  1.0000
  H   H7        1.0  0.79465  0.72147  0.53060  1.0000
  H   H8        1.0  0.27853  0.20535  0.96940  1.0000
  H   H9        1.0  0.20535  0.27853  0.46940  1.0000
  H   H10       1.0  0.72147  0.79465  0.03060  1.0000
  H   H11       1.0  0.76699  0.85434  0.67285  1.0000
  H   H12       1.0  0.14567  0.23300  0.82715  1.0000
  H   H13       1.0  0.23301  0.14567  0.32715  1.0000
  H   H14       1.0  0.85433  0.76699  0.17285  1.0000
  H   H15       1.0  0.68427  0.44080  0.52422  1.0000
  H   H16       1.0  0.55920  0.31573  0.97578  1.0000
  H   H17       1.0  0.31572  0.55920  0.47578  1.0000
  H   H18       1.0  0.44080  0.68427  0.02422  1.0000
  C   C1        1.0  0.74004  0.01462  0.45555  1.0000
  C   C2        1.0  0.98538  0.25996  0.04445  1.0000
  C   C3        1.0  0.25996  0.98538  0.54445  1.0000
  C   C4        1.0  0.01462  0.74004  0.95555  1.0000
  C   C5        1.0  0.76349  0.88150  0.53277  1.0000
  C   C6        1.0  0.11850  0.23651  0.96723  1.0000
  C   C7        1.0  0.23651  0.11850  0.46723  1.0000
  C   C8        1.0  0.88150  0.76349  0.03277  1.0000
  C   C9        1.0  0.75096  0.95437  0.61112  1.0000
  C   C10       1.0  0.04564  0.24904  0.88888  1.0000
  C   C11       1.0  0.24904  0.04563  0.38888  1.0000
  C   C12       1.0  0.95437  0.75096  0.11112  1.0000
  C   C13       1.0  0.71544  0.16084  0.60980  1.0000
  C   C14       1.0  0.83916  0.28456  0.89020  1.0000
  C   C15       1.0  0.28456  0.83916  0.39020  1.0000
  C   C16       1.0  0.16084  0.71544  0.10980  1.0000
  C   C17       1.0  0.69935  0.28310  0.52938  1.0000
  C   C18       1.0  0.71691  0.30065  0.97062  1.0000
  C   C19       1.0  0.30064  0.71691  0.47062  1.0000
  C   C20       1.0  0.28310  0.69935  0.02938  1.0000
  C   C21       1.0  0.69834  0.24916  0.68961  1.0000
  C   C22       1.0  0.75085  0.30166  0.81039  1.0000
  C   C23       1.0  0.30166  0.75085  0.31039  1.0000
  C   C24       1.0  0.24915  0.69834  0.18961  1.0000
  N   N1        1.0  0.71025  0.21189  0.45410  1.0000
  N   N2        1.0  0.78812  0.28974  0.04590  1.0000
  N   N3        1.0  0.28974  0.78811  0.54590  1.0000
  N   N4        1.0  0.21188  0.71026  0.95410  1.0000
  N   N5        1.0  0.83234  0.16767  0.75000  1.0000
  N   N6        1.0  0.16767  0.83233  0.25000  1.0000
  N   N7        1.0  0.54208  0.42523  0.71093  1.0000
  N   N8        1.0  0.57478  0.45792  0.78907  1.0000
  N   N9        1.0  0.45792  0.57478  0.28907  1.0000
  N   N10       1.0  0.42523  0.54208  0.21093  1.0000
  Cl  Cl1       1.0  0.89700  0.56602  0.35471  1.0000
  Cl  Cl2       1.0  0.43398  0.10299  0.14529  1.0000
  Cl  Cl3       1.0  0.10299  0.43398  0.64529  1.0000
  Cl  Cl4       1.0  0.56602  0.89700  0.85471  1.0000
  O   O1        1.0  0.80866  0.19134  0.25000  1.0000
  O   O2        1.0  0.19134  0.80866  0.75000  1.0000
