data_image0
_chemical_formula_structural       Cd2H12C16N4Cl4O4
_chemical_formula_sum              "Cd2 H12 C16 N4 Cl4 O4"
_cell_length_a       7.05946
_cell_length_b       9.13049
_cell_length_c       9.13046
_cell_angle_alpha    90.1028
_cell_angle_beta     69.1148
_cell_angle_gamma    69.115

_space_group_name_H-M_alt    "P 1"
_space_group_IT_number       1

loop_
  _space_group_symop_operation_xyz
  'x, y, z'

loop_
  _atom_site_type_symbol
  _atom_site_label
  _atom_site_symmetry_multiplicity
  _atom_site_fract_x
  _atom_site_fract_y
  _atom_site_fract_z
  _atom_site_occupancy
  Cd  Cd1       1.0  0.75000  0.93814  0.06186  1.0000
  Cd  Cd2       1.0  0.25000  0.06187  0.93814  1.0000
  H   H1        1.0  0.69773  0.81035  0.58663  1.0000
  H   H2        1.0  0.80226  0.41337  0.18965  1.0000
  H   H3        1.0  0.30227  0.18965  0.41337  1.0000
  H   H4        1.0  0.19773  0.58663  0.81035  1.0000
  H   H5        1.0  0.68867  0.63397  0.78274  1.0000
  H   H6        1.0  0.81133  0.21726  0.36604  1.0000
  H   H7        1.0  0.31133  0.36603  0.21726  1.0000
  H   H8        1.0  0.18867  0.78274  0.63396  1.0000
  H   H9        1.0  0.71901  0.36189  0.84500  1.0000
  H   H10       1.0  0.78100  0.15500  0.63811  1.0000
  H   H11       1.0  0.28099  0.63811  0.15500  1.0000
  H   H12       1.0  0.21899  0.84499  0.36190  1.0000
  C   C1        1.0  0.73477  0.76835  0.35618  1.0000
  C   C2        1.0  0.76521  0.64384  0.23165  1.0000
  C   C3        1.0  0.26522  0.23165  0.64383  1.0000
  C   C4        1.0  0.23479  0.35617  0.76835  1.0000
  C   C5        1.0  0.73272  0.57701  0.54043  1.0000
  C   C6        1.0  0.76729  0.45958  0.42301  1.0000
  C   C7        1.0  0.26729  0.42299  0.45957  1.0000
  C   C8        1.0  0.23273  0.54043  0.57699  1.0000
  C   C9        1.0  0.71534  0.54185  0.69309  1.0000
  C   C10       1.0  0.78467  0.30691  0.45815  1.0000
  C   C11       1.0  0.28465  0.45815  0.30692  1.0000
  C   C12       1.0  0.21534  0.69308  0.54185  1.0000
  C   C13       1.0  0.73254  0.39044  0.72679  1.0000
  C   C14       1.0  0.76747  0.27321  0.60957  1.0000
  C   C15       1.0  0.26747  0.60956  0.27321  1.0000
  C   C16       1.0  0.23253  0.72679  0.39043  1.0000
  N   N1        1.0  0.71727  0.72645  0.50067  1.0000
  N   N2        1.0  0.78272  0.49933  0.27355  1.0000
  N   N3        1.0  0.28271  0.27355  0.49933  1.0000
  N   N4        1.0  0.21727  0.50067  0.72645  1.0000
  Cl  Cl1       1.0  0.18523  0.79995  0.93717  1.0000
  Cl  Cl2       1.0  0.31477  0.06283  0.20005  1.0000
  Cl  Cl3       1.0  0.81477  0.20005  0.06283  1.0000
  Cl  Cl4       1.0  0.68523  0.93717  0.79995  1.0000
  O   O1        1.0  0.72641  0.90342  0.32431  1.0000
  O   O2        1.0  0.77358  0.67568  0.09658  1.0000
  O   O3        1.0  0.27360  0.09658  0.67568  1.0000
  O   O4        1.0  0.22642  0.32432  0.90342  1.0000
