data_image0
_chemical_formula_structural       Ni4H32C24N8O20
_chemical_formula_sum              "Ni4 H32 C24 N8 O20"
_cell_length_a       7.02892
_cell_length_b       7.76856
_cell_length_c       15.3438
_cell_angle_alpha    98.9554
_cell_angle_beta     90.0669
_cell_angle_gamma    89.1731

_space_group_name_H-M_alt    "P 1"
_space_group_IT_number       1

loop_
  _space_group_symop_operation_xyz
  'x, y, z'

loop_
  _atom_site_type_symbol
  _atom_site_label
  _atom_site_symmetry_multiplicity
  _atom_site_fract_x
  _atom_site_fract_y
  _atom_site_fract_z
  _atom_site_occupancy
  Ni  Ni1       1.0  0.74447  0.70304  0.35478  1.0000
  Ni  Ni2       1.0  0.24167  0.29878  0.14607  1.0000
  Ni  Ni3       1.0  0.25675  0.29874  0.64501  1.0000
  Ni  Ni4       1.0  0.75625  0.70122  0.85472  1.0000
  H   H1        1.0  0.91827  0.81126  0.53556  1.0000
  H   H2        1.0  0.41941  0.19433  0.96227  1.0000
  H   H3        1.0  0.07570  0.19380  0.46169  1.0000
  H   H4        1.0  0.57821  0.80670  0.03916  1.0000
  H   H5        1.0  0.89562  0.35072  0.35599  1.0000
  H   H6        1.0  0.39904  0.65032  0.14484  1.0000
  H   H7        1.0  0.09701  0.65342  0.64174  1.0000
  H   H8        1.0  0.59841  0.35026  0.85672  1.0000
  H   H9        1.0  0.72024  0.07949  0.39005  1.0000
  H   H10       1.0  0.21894  0.91750  0.10896  1.0000
  H   H11       1.0  0.28510  0.91552  0.60769  1.0000
  H   H12       1.0  0.77918  0.08335  0.89111  1.0000
  H   H13       1.0  0.48386  0.68838  0.51041  1.0000
  H   H14       1.0  0.97888  0.30840  0.98582  1.0000
  H   H15       1.0  0.51814  0.30560  0.48557  1.0000
  H   H16       1.0  0.01941  0.69241  0.01403  1.0000
  H   H17       1.0  0.18453  0.71317  0.34368  1.0000
  H   H18       1.0  0.67175  0.29154  0.15964  1.0000
  H   H19       1.0  0.82719  0.29491  0.65842  1.0000
  H   H20       1.0  0.32805  0.70693  0.84195  1.0000
  H   H21       1.0  0.85091  0.69058  0.16396  1.0000
  H   H22       1.0  0.35086  0.30107  0.33512  1.0000
  H   H23       1.0  0.14898  0.31401  0.83754  1.0000
  H   H24       1.0  0.64422  0.68375  0.66126  1.0000
  H   H25       1.0  0.66962  0.90024  0.23572  1.0000
  H   H26       1.0  0.16621  0.09801  0.26557  1.0000
  H   H27       1.0  0.33798  0.09770  0.76583  1.0000
  H   H28       1.0  0.83618  0.90145  0.73292  1.0000
  H   H29       1.0  0.47320  0.85401  0.28113  1.0000
  H   H30       1.0  0.96899  0.14195  0.21985  1.0000
  H   H31       1.0  0.53221  0.14370  0.71927  1.0000
  H   H32       1.0  0.02951  0.85441  0.78022  1.0000
  C   C1        1.0  0.95248  0.67286  0.51891  1.0000
  C   C2        1.0  0.45467  0.33159  0.97972  1.0000
  C   C3        1.0  0.04093  0.33224  0.47869  1.0000
  C   C4        1.0  0.54327  0.66934  0.02179  1.0000
  C   C5        1.0  0.93703  0.41737  0.42062  1.0000
  C   C6        1.0  0.44058  0.58488  0.07962  1.0000
  C   C7        1.0  0.05577  0.58707  0.57692  1.0000
  C   C8        1.0  0.55752  0.41597  0.92197  1.0000
  C   C9        1.0  0.62208  0.04384  0.43877  1.0000
  C   C10       1.0  0.12054  0.95334  0.05975  1.0000
  C   C11       1.0  0.38234  0.95099  0.55846  1.0000
  C   C12       1.0  0.87760  0.04756  0.94031  1.0000
  C   C13       1.0  0.49265  0.82654  0.50551  1.0000
  C   C14       1.0  0.98814  0.17056  0.99207  1.0000
  C   C15       1.0  0.51082  0.16767  0.49157  1.0000
  C   C16       1.0  0.01005  0.83036  0.00799  1.0000
  C   C17       1.0  0.14406  0.84905  0.33710  1.0000
  C   C18       1.0  0.63121  0.15642  0.16534  1.0000
  C   C19       1.0  0.86990  0.15930  0.66381  1.0000
  C   C20       1.0  0.36764  0.84186  0.83552  1.0000
  C   C21       1.0  0.91973  0.57437  0.18474  1.0000
  C   C22       1.0  0.41464  0.42187  0.31848  1.0000
  C   C23       1.0  0.07907  0.43041  0.81720  1.0000
  C   C24       1.0  0.57721  0.56845  0.68249  1.0000
  N   N1        1.0  0.89249  0.58817  0.44069  1.0000
  N   N2        1.0  0.39580  0.41571  0.05850  1.0000
  N   N3        1.0  0.10063  0.41653  0.55690  1.0000
  N   N4        1.0  0.60196  0.58524  0.94298  1.0000
  N   N5        1.0  0.61303  0.87323  0.44536  1.0000
  N   N6        1.0  0.11007  0.12345  0.05206  1.0000
  N   N7        1.0  0.39053  0.12139  0.55168  1.0000
  N   N8        1.0  0.88810  0.87748  0.94801  1.0000
  O   O1        1.0  0.97590  0.90156  0.35499  1.0000
  O   O2        1.0  0.45994  0.11193  0.15025  1.0000
  O   O3        1.0  0.04285  0.11388  0.65028  1.0000
  O   O4        1.0  0.53946  0.88673  0.84925  1.0000
  O   O5        1.0  0.27348  0.94203  0.31022  1.0000
  O   O6        1.0  0.76077  0.05594  0.18760  1.0000
  O   O7        1.0  0.74158  0.05906  0.68427  1.0000
  O   O8        1.0  0.23751  0.94187  0.81365  1.0000
  O   O9        1.0  0.88000  0.53936  0.26068  1.0000
  O   O10       1.0  0.37183  0.46558  0.24435  1.0000
  O   O11       1.0  0.12059  0.46866  0.74249  1.0000
  O   O12       1.0  0.62188  0.53145  0.75733  1.0000
  O   O13       1.0  0.03103  0.48692  0.12912  1.0000
  O   O14       1.0  0.52303  0.50413  0.37575  1.0000
  O   O15       1.0  0.96409  0.51353  0.87297  1.0000
  O   O16       1.0  0.46275  0.48555  0.62760  1.0000
  O   O17       1.0  0.60415  0.80570  0.26185  1.0000
  O   O18       1.0  0.09559  0.19144  0.23967  1.0000
  O   O19       1.0  0.40388  0.19166  0.73994  1.0000
  O   O20       1.0  0.90215  0.80722  0.75994  1.0000
