data_image0
_chemical_formula_structural       Cu4H28C40N8Cl6
_chemical_formula_sum              "Cu4 H28 C40 N8 Cl6"
_cell_length_a       8.13003
_cell_length_b       9.71965
_cell_length_c       12.2593
_cell_angle_alpha    78.7753
_cell_angle_beta     85.8914
_cell_angle_gamma    88.1761

_space_group_name_H-M_alt    "P 1"
_space_group_IT_number       1

loop_
  _space_group_symop_operation_xyz
  'x, y, z'

loop_
  _atom_site_type_symbol
  _atom_site_label
  _atom_site_symmetry_multiplicity
  _atom_site_fract_x
  _atom_site_fract_y
  _atom_site_fract_z
  _atom_site_occupancy
  Cu  Cu1       1.0  0.55944  0.36528  0.64093  1.0000
  Cu  Cu2       1.0  0.44057  0.63472  0.35908  1.0000
  Cu  Cu3       1.0  0.49055  0.14877  0.94951  1.0000
  Cu  Cu4       1.0  0.50945  0.85123  0.05049  1.0000
  H   H1        1.0  0.56716  0.58772  0.97500  1.0000
  H   H2        1.0  0.43284  0.41228  0.02500  1.0000
  H   H3        1.0  0.27877  0.74103  0.81769  1.0000
  H   H4        1.0  0.72123  0.25897  0.18231  1.0000
  H   H5        1.0  0.97770  0.38369  0.80566  1.0000
  H   H6        1.0  0.02230  0.61631  0.19434  1.0000
  H   H7        1.0  0.78957  0.47078  0.87953  1.0000
  H   H8        1.0  0.21043  0.52922  0.12047  1.0000
  H   H9        1.0  0.52002  0.08312  0.56750  1.0000
  H   H10       1.0  0.47998  0.91687  0.43250  1.0000
  H   H11       1.0  0.01868  0.96321  0.67596  1.0000
  H   H12       1.0  0.98132  0.03679  0.32404  1.0000
  H   H13       1.0  0.77802  0.93291  0.66887  1.0000
  H   H14       1.0  0.22197  0.06709  0.33112  1.0000
  H   H15       1.0  0.97915  0.18719  0.74477  1.0000
  H   H16       1.0  0.02086  0.81280  0.25523  1.0000
  H   H17       1.0  0.50915  0.83954  0.75282  1.0000
  H   H18       1.0  0.49084  0.16046  0.24718  1.0000
  H   H19       1.0  0.29028  0.90765  0.58345  1.0000
  H   H20       1.0  0.70972  0.09235  0.41655  1.0000
  H   H21       1.0  0.10604  0.81154  0.91372  1.0000
  H   H22       1.0  0.89396  0.18846  0.08628  1.0000
  H   H23       1.0  0.87634  0.53926  0.55814  1.0000
  H   H24       1.0  0.12366  0.46074  0.44186  1.0000
  H   H25       1.0  0.97277  0.77648  0.57059  1.0000
  H   H26       1.0  0.02722  0.22353  0.42940  1.0000
  H   H27       1.0  0.86599  0.91109  0.00817  1.0000
  H   H28       1.0  0.13401  0.08892  0.99183  1.0000
  C   C1        1.0  0.54737  0.64308  0.69524  1.0000
  C   C2        1.0  0.45263  0.35692  0.30476  1.0000
  C   C3        1.0  0.68951  0.63307  0.95967  1.0000
  C   C4        1.0  0.31049  0.36693  0.04032  1.0000
  C   C5        1.0  0.38677  0.58005  0.73606  1.0000
  C   C6        1.0  0.61323  0.41994  0.26394  1.0000
  C   C7        1.0  0.25977  0.64027  0.79459  1.0000
  C   C8        1.0  0.74023  0.35972  0.20541  1.0000
  C   C9        1.0  0.97181  0.63145  0.88398  1.0000
  C   C10       1.0  0.02819  0.36855  0.11602  1.0000
  C   C11       1.0  0.10907  0.57007  0.82246  1.0000
  C   C12       1.0  0.89093  0.42993  0.17754  1.0000
  C   C13       1.0  0.22620  0.38542  0.73247  1.0000
  C   C14       1.0  0.77380  0.61458  0.26754  1.0000
  C   C15       1.0  0.09251  0.44120  0.78841  1.0000
  C   C16       1.0  0.90749  0.55880  0.21159  1.0000
  C   C17       1.0  0.81631  0.56867  0.90532  1.0000
  C   C18       1.0  0.18369  0.43133  0.09468  1.0000
  C   C19       1.0  0.39788  0.10042  0.60576  1.0000
  C   C20       1.0  0.60212  0.89958  0.39424  1.0000
  C   C21       1.0  0.11969  0.03615  0.66608  1.0000
  C   C22       1.0  0.88030  0.96384  0.33392  1.0000
  C   C23       1.0  0.74481  0.82728  0.66192  1.0000
  C   C24       1.0  0.25519  0.17272  0.33808  1.0000
  C   C25       1.0  0.09783  0.16092  0.70563  1.0000
  C   C26       1.0  0.90218  0.83908  0.29437  1.0000
  C   C27       1.0  0.23066  0.25125  0.69335  1.0000
  C   C28       1.0  0.76935  0.74875  0.30666  1.0000
  C   C29       1.0  0.59178  0.77640  0.70744  1.0000
  C   C30       1.0  0.40821  0.22360  0.29256  1.0000
  C   C31       1.0  0.27116  0.00463  0.61540  1.0000
  C   C32       1.0  0.72884  0.99537  0.38460  1.0000
  C   C33       1.0  0.98946  0.75647  0.92351  1.0000
  C   C34       1.0  0.01054  0.24353  0.07649  1.0000
  C   C35       1.0  0.79924  0.61004  0.59984  1.0000
  C   C36       1.0  0.20076  0.38996  0.40016  1.0000
  C   C37       1.0  0.85119  0.74292  0.60779  1.0000
  C   C38       1.0  0.14881  0.25709  0.39221  1.0000
  C   C39       1.0  0.85615  0.81369  0.97759  1.0000
  C   C40       1.0  0.14385  0.18631  0.02241  1.0000
  N   N1        1.0  0.36856  0.45448  0.70904  1.0000
  N   N2        1.0  0.63145  0.54552  0.29096  1.0000
  N   N3        1.0  0.70583  0.75466  0.99531  1.0000
  N   N4        1.0  0.29417  0.24535  0.00469  1.0000
  N   N5        1.0  0.65088  0.56172  0.64167  1.0000
  N   N6        1.0  0.34912  0.43828  0.35834  1.0000
  N   N7        1.0  0.37819  0.22051  0.64305  1.0000
  N   N8        1.0  0.62181  0.77949  0.35695  1.0000
  Cl  Cl1       1.0  0.36830  0.95469  0.89433  1.0000
  Cl  Cl2       1.0  0.63171  0.04531  0.10567  1.0000
  Cl  Cl3       1.0  0.68774  0.24859  0.82142  1.0000
  Cl  Cl4       1.0  0.31226  0.75141  0.17858  1.0000
  Cl  Cl5       1.0  0.74967  0.29183  0.52127  1.0000
  Cl  Cl6       1.0  0.25033  0.70817  0.47874  1.0000
