data_image0
_chemical_formula_structural       Cu2H24C20Cl4O12
_chemical_formula_sum              "Cu2 H24 C20 Cl4 O12"
_cell_length_a       7.69886
_cell_length_b       9.51708
_cell_length_c       10.1172
_cell_angle_alpha    107.149
_cell_angle_beta     89.9477
_cell_angle_gamma    113.909

_space_group_name_H-M_alt    "P 1"
_space_group_IT_number       1

loop_
  _space_group_symop_operation_xyz
  'x, y, z'

loop_
  _atom_site_type_symbol
  _atom_site_label
  _atom_site_symmetry_multiplicity
  _atom_site_fract_x
  _atom_site_fract_y
  _atom_site_fract_z
  _atom_site_occupancy
  Cu  Cu1       1.0  0.05200  0.00023  0.75035  1.0000
  Cu  Cu2       1.0  0.94798  0.99977  0.24965  1.0000
  H   H1        1.0  0.17949  0.19048  0.56724  1.0000
  H   H2        1.0  0.98908  0.80942  0.93262  1.0000
  H   H3        1.0  0.82049  0.80950  0.43276  1.0000
  H   H4        1.0  0.01093  0.19058  0.06737  1.0000
  H   H5        1.0  0.09562  0.39100  0.80481  1.0000
  H   H6        1.0  0.70522  0.60839  0.69493  1.0000
  H   H7        1.0  0.90440  0.60901  0.19519  1.0000
  H   H8        1.0  0.29479  0.39159  0.30506  1.0000
  H   H9        1.0  0.92452  0.27059  0.65221  1.0000
  H   H10       1.0  0.65362  0.72823  0.84747  1.0000
  H   H11       1.0  0.07548  0.72943  0.34779  1.0000
  H   H12       1.0  0.34638  0.27176  0.15251  1.0000
  H   H13       1.0  0.11190  0.55742  0.65079  1.0000
  H   H14       1.0  0.55527  0.44184  0.84910  1.0000
  H   H15       1.0  0.88814  0.44259  0.34920  1.0000
  H   H16       1.0  0.44476  0.55817  0.15091  1.0000
  H   H17       1.0  0.14429  0.41320  0.50793  1.0000
  H   H18       1.0  0.73184  0.58634  0.99182  1.0000
  H   H19       1.0  0.85573  0.58679  0.49207  1.0000
  H   H20       1.0  0.26819  0.41369  0.00818  1.0000
  H   H21       1.0  0.32724  0.52929  0.65399  1.0000
  H   H22       1.0  0.79899  0.47056  0.84565  1.0000
  H   H23       1.0  0.67279  0.47070  0.34601  1.0000
  H   H24       1.0  0.20104  0.52946  0.15436  1.0000
  C   C1        1.0  0.42366  0.06132  0.82339  1.0000
  C   C2        1.0  0.36278  0.93951  0.67728  1.0000
  C   C3        1.0  0.57631  0.93868  0.17662  1.0000
  C   C4        1.0  0.63721  0.06048  0.32272  1.0000
  C   C5        1.0  0.61097  0.12037  0.89010  1.0000
  C   C6        1.0  0.49095  0.88035  0.61054  1.0000
  C   C7        1.0  0.38901  0.87963  0.10991  1.0000
  C   C8        1.0  0.50903  0.11964  0.38947  1.0000
  C   C9        1.0  0.73784  0.06083  0.82318  1.0000
  C   C10       1.0  0.67738  0.93983  0.67738  1.0000
  C   C11       1.0  0.26215  0.93916  0.17682  1.0000
  C   C12       1.0  0.32262  0.06017  0.32262  1.0000
  C   C13       1.0  0.07922  0.33743  0.69083  1.0000
  C   C14       1.0  0.74205  0.66198  0.80891  1.0000
  C   C15       1.0  0.92079  0.66257  0.30917  1.0000
  C   C16       1.0  0.25796  0.33802  0.19108  1.0000
  C   C17       1.0  0.17135  0.46686  0.62215  1.0000
  C   C18       1.0  0.70527  0.53267  0.87760  1.0000
  C   C19       1.0  0.82867  0.53313  0.37785  1.0000
  C   C20       1.0  0.29476  0.46735  0.12241  1.0000
  Cl  Cl1       1.0  0.68101  0.25890  0.05498  1.0000
  Cl  Cl2       1.0  0.42228  0.74155  0.44576  1.0000
  Cl  Cl3       1.0  0.31898  0.74108  0.94502  1.0000
  Cl  Cl4       1.0  0.57770  0.25845  0.55424  1.0000
  O   O1        1.0  0.29504  0.10239  0.87810  1.0000
  O   O2        1.0  0.19315  0.89854  0.62258  1.0000
  O   O3        1.0  0.70495  0.89761  0.12190  1.0000
  O   O4        1.0  0.80683  0.10147  0.37742  1.0000
  O   O5        1.0  0.90904  0.10199  0.87762  1.0000
  O   O6        1.0  0.80731  0.89845  0.62296  1.0000
  O   O7        1.0  0.09093  0.89800  0.12238  1.0000
  O   O8        1.0  0.19266  0.10154  0.37704  1.0000
  O   O9        1.0  0.16764  0.22622  0.66719  1.0000
  O   O10       1.0  0.94158  0.77391  0.83269  1.0000
  O   O11       1.0  0.83235  0.77376  0.33280  1.0000
  O   O12       1.0  0.05843  0.22610  0.16730  1.0000
