data_image0
_chemical_formula_structural       Cu2H8C12Cl4O12
_chemical_formula_sum              "Cu2 H8 C12 Cl4 O12"
_cell_length_a       4.64574
_cell_length_b       8.08498
_cell_length_c       12.4792
_cell_angle_alpha    101.136
_cell_angle_beta     90.0009
_cell_angle_gamma    90.0005

_space_group_name_H-M_alt    "P 1"
_space_group_IT_number       1

loop_
  _space_group_symop_operation_xyz
  'x, y, z'

loop_
  _atom_site_type_symbol
  _atom_site_label
  _atom_site_symmetry_multiplicity
  _atom_site_fract_x
  _atom_site_fract_y
  _atom_site_fract_z
  _atom_site_occupancy
  Cu  Cu1       1.0  0.00000  0.49999  0.50001  1.0000
  Cu  Cu2       1.0  0.50001  1.00000  0.99999  1.0000
  H   H1        1.0  0.76390  0.43939  0.30907  1.0000
  H   H2        1.0  0.26393  0.06062  0.19095  1.0000
  H   H3        1.0  0.23603  0.56067  0.69096  1.0000
  H   H4        1.0  0.73609  0.93935  0.80904  1.0000
  H   H5        1.0  0.55489  0.35267  0.38566  1.0000
  H   H6        1.0  0.05490  0.14733  0.11435  1.0000
  H   H7        1.0  0.44510  0.64735  0.61436  1.0000
  H   H8        1.0  0.94511  0.85267  0.88565  1.0000
  C   C1        1.0  0.13777  0.12805  0.45031  1.0000
  C   C2        1.0  0.63779  0.37195  0.04970  1.0000
  C   C3        1.0  0.86222  0.87194  0.54970  1.0000
  C   C4        1.0  0.36225  0.62804  0.95030  1.0000
  C   C5        1.0  0.21662  0.95830  0.41578  1.0000
  C   C6        1.0  0.71665  0.54171  0.08422  1.0000
  C   C7        1.0  0.78335  0.04171  0.58422  1.0000
  C   C8        1.0  0.28339  0.45829  0.91577  1.0000
  C   C9        1.0  0.08965  0.82905  0.45968  1.0000
  C   C10       1.0  0.58968  0.67094  0.04031  1.0000
  C   C11       1.0  0.91032  0.17095  0.54032  1.0000
  C   C12       1.0  0.41036  0.32904  0.95967  1.0000
  Cl  Cl1       1.0  0.47279  0.90892  0.31454  1.0000
  Cl  Cl2       1.0  0.97277  0.59109  0.18547  1.0000
  Cl  Cl3       1.0  0.52719  0.09108  0.68545  1.0000
  Cl  Cl4       1.0  0.02720  0.40891  0.81454  1.0000
  O   O1        1.0  0.23946  0.24943  0.41191  1.0000
  O   O2        1.0  0.73944  0.25057  0.08811  1.0000
  O   O3        1.0  0.76055  0.75057  0.58811  1.0000
  O   O4        1.0  0.26053  0.74942  0.91191  1.0000
  O   O5        1.0  0.15457  0.67460  0.42705  1.0000
  O   O6        1.0  0.65461  0.82541  0.07294  1.0000
  O   O7        1.0  0.84544  0.32542  0.57295  1.0000
  O   O8        1.0  0.34544  0.17458  0.92704  1.0000
  O   O9        1.0  0.69435  0.44502  0.38372  1.0000
  O   O10       1.0  0.19437  0.05499  0.11628  1.0000
  O   O11       1.0  0.30564  0.55501  0.61630  1.0000
  O   O12       1.0  0.80564  0.94500  0.88369  1.0000
