data_image0
_chemical_formula_structural       Cu3H33C39N6O6
_chemical_formula_sum              "Cu3 H33 C39 N6 O6"
_cell_length_a       9.75289
_cell_length_b       9.75247
_cell_length_c       10.3926
_cell_angle_alpha    90.0075
_cell_angle_beta     90.0033
_cell_angle_gamma    120.002

_space_group_name_H-M_alt    "P 1"
_space_group_IT_number       1

loop_
  _space_group_symop_operation_xyz
  'x, y, z'

loop_
  _atom_site_type_symbol
  _atom_site_label
  _atom_site_symmetry_multiplicity
  _atom_site_fract_x
  _atom_site_fract_y
  _atom_site_fract_z
  _atom_site_occupancy
  Cu  Cu1       1.0  0.44917  0.34261  0.61994  1.0000
  Cu  Cu2       1.0  0.65742  0.10670  0.95319  1.0000
  Cu  Cu3       1.0  0.89325  0.55075  0.28659  1.0000
  H   H1        1.0  0.41397  0.17272  0.42042  1.0000
  H   H2        1.0  0.82722  0.24131  0.75367  1.0000
  H   H3        1.0  0.75879  0.58607  0.08708  1.0000
  H   H4        1.0  0.36408  0.46143  0.44674  1.0000
  H   H5        1.0  0.53852  0.90267  0.78009  1.0000
  H   H6        1.0  0.09728  0.63559  0.11344  1.0000
  H   H7        1.0  0.16212  0.00743  0.45873  1.0000
  H   H8        1.0  0.99253  0.15487  0.79170  1.0000
  H   H9        1.0  0.84544  0.83767  0.12549  1.0000
  H   H10       1.0  0.87120  0.83658  0.45116  1.0000
  H   H11       1.0  0.16343  0.03487  0.78422  1.0000
  H   H12       1.0  0.96548  0.12854  0.11783  1.0000
  H   H13       1.0  0.10917  0.42065  0.47277  1.0000
  H   H14       1.0  0.57941  0.68864  0.80640  1.0000
  H   H15       1.0  0.31166  0.89070  0.13946  1.0000
  H   H16       1.0  0.81785  0.24900  0.47001  1.0000
  H   H17       1.0  0.75109  0.56908  0.80362  1.0000
  H   H18       1.0  0.43122  0.18199  0.13676  1.0000
  H   H19       1.0  0.60577  0.81010  0.48348  1.0000
  H   H20       1.0  0.18984  0.79569  0.81698  1.0000
  H   H21       1.0  0.20441  0.39397  0.15040  1.0000
  H   H22       1.0  0.58708  0.98327  0.49136  1.0000
  H   H23       1.0  0.01656  0.60390  0.82490  1.0000
  H   H24       1.0  0.39627  0.41271  0.15838  1.0000
  H   H25       1.0  0.67786  0.14921  0.25241  1.0000
  H   H26       1.0  0.85058  0.52871  0.58590  1.0000
  H   H27       1.0  0.47137  0.32193  0.91920  1.0000
  H   H28       1.0  0.53150  0.66214  0.28343  1.0000
  H   H29       1.0  0.33768  0.86935  0.61699  1.0000
  H   H30       1.0  0.13096  0.46862  0.95062  1.0000
  H   H31       1.0  0.51401  0.73630  0.02517  1.0000
  H   H32       1.0  0.26344  0.77779  0.35876  1.0000
  H   H33       1.0  0.22246  0.48619  0.69236  1.0000
  C   C1        1.0  0.60479  0.41713  0.38689  1.0000
  C   C2        1.0  0.58288  0.18789  0.72018  1.0000
  C   C3        1.0  0.81211  0.39506  0.05357  1.0000
  C   C4        1.0  0.44511  0.29597  0.43345  1.0000
  C   C5        1.0  0.70397  0.14925  0.76670  1.0000
  C   C6        1.0  0.85080  0.55479  0.10011  1.0000
  C   C7        1.0  0.32850  0.33645  0.45994  1.0000
  C   C8        1.0  0.66350  0.99216  0.79324  1.0000
  C   C9        1.0  0.00796  0.67128  0.12666  1.0000
  C   C10       1.0  0.15727  0.22728  0.46574  1.0000
  C   C11       1.0  0.77272  0.93016  0.79909  1.0000
  C   C12       1.0  0.07013  0.84252  0.13249  1.0000
  C   C13       1.0  0.08772  0.06145  0.46149  1.0000
  C   C14       1.0  0.93853  0.02644  0.79464  1.0000
  C   C15       1.0  0.97387  0.91207  0.12823  1.0000
  C   C16       1.0  0.92403  0.96488  0.45786  1.0000
  C   C17       1.0  0.03515  0.95936  0.79105  1.0000
  C   C18       1.0  0.04095  0.07575  0.12453  1.0000
  C   C19       1.0  0.05711  0.29229  0.47068  1.0000
  C   C20       1.0  0.70776  0.76500  0.80421  1.0000
  C   C21       1.0  0.23530  0.94269  0.13741  1.0000
  C   C22       1.0  0.89339  0.19595  0.46877  1.0000
  C   C23       1.0  0.80413  0.69766  0.80229  1.0000
  C   C24       1.0  0.30266  0.10642  0.13549  1.0000
  C   C25       1.0  0.82562  0.03139  0.46037  1.0000
  C   C26       1.0  0.96865  0.79444  0.79377  1.0000
  C   C27       1.0  0.20588  0.17418  0.12707  1.0000
  C   C28       1.0  0.64902  0.92904  0.44401  1.0000
  C   C29       1.0  0.07088  0.72005  0.77753  1.0000
  C   C30       1.0  0.28016  0.35081  0.11093  1.0000
  C   C31       1.0  0.63559  0.02748  0.22315  1.0000
  C   C32       1.0  0.97230  0.60812  0.55667  1.0000
  C   C33       1.0  0.39201  0.36432  0.89003  1.0000
  C   C34       1.0  0.55130  0.77021  0.23663  1.0000
  C   C35       1.0  0.22959  0.78109  0.57020  1.0000
  C   C36       1.0  0.21919  0.44881  0.90377  1.0000
  C   C37       1.0  0.54819  0.81022  0.11032  1.0000
  C   C38       1.0  0.18955  0.73802  0.44387  1.0000
  C   C39       1.0  0.26224  0.45197  0.77741  1.0000
  N   N1        1.0  0.60166  0.97104  0.10306  1.0000
  N   N2        1.0  0.02872  0.63067  0.43659  1.0000
  N   N3        1.0  0.36947  0.39837  0.77001  1.0000
  N   N4        1.0  0.60661  0.90872  0.30620  1.0000
  N   N5        1.0  0.09111  0.69785  0.63974  1.0000
  N   N6        1.0  0.30236  0.39338  0.97319  1.0000
  O   O1        1.0  0.64509  0.56187  0.38175  1.0000
  O   O2        1.0  0.43813  0.08349  0.71493  1.0000
  O   O3        1.0  0.91651  0.35471  0.04829  1.0000
  O   O4        1.0  0.69768  0.36402  0.35327  1.0000
  O   O5        1.0  0.63602  0.33395  0.68673  1.0000
  O   O6        1.0  0.66605  0.30213  0.02010  1.0000
