data_image0
_chemical_formula_structural       K4H8C8N16O16
_chemical_formula_sum              "K4 H8 C8 N16 O16"
_cell_length_a       5.96481
_cell_length_b       6.42988
_cell_length_c       16.152
_cell_angle_alpha    90.0002
_cell_angle_beta     90.0001
_cell_angle_gamma    98.6365

_space_group_name_H-M_alt    "P 1"
_space_group_IT_number       1

loop_
  _space_group_symop_operation_xyz
  'x, y, z'

loop_
  _atom_site_type_symbol
  _atom_site_label
  _atom_site_symmetry_multiplicity
  _atom_site_fract_x
  _atom_site_fract_y
  _atom_site_fract_z
  _atom_site_occupancy
  K   K1        1.0  0.96585  0.71025  0.78083  1.0000
  K   K2        1.0  0.53416  0.78974  0.28083  1.0000
  K   K3        1.0  0.03416  0.28974  0.21917  1.0000
  K   K4        1.0  0.46583  0.21025  0.71917  1.0000
  H   H1        1.0  0.92731  0.22100  0.84195  1.0000
  H   H2        1.0  0.57268  0.27899  0.34195  1.0000
  H   H3        1.0  0.07268  0.77899  0.15805  1.0000
  H   H4        1.0  0.42732  0.72101  0.65805  1.0000
  H   H5        1.0  0.71188  0.28362  0.88585  1.0000
  H   H6        1.0  0.78812  0.21638  0.38585  1.0000
  H   H7        1.0  0.28812  0.71638  0.11415  1.0000
  H   H8        1.0  0.21188  0.78362  0.61415  1.0000
  C   C1        1.0  0.10957  0.06259  0.00320  1.0000
  C   C2        1.0  0.39043  0.43741  0.50320  1.0000
  C   C3        1.0  0.89043  0.93741  0.99680  1.0000
  C   C4        1.0  0.60957  0.56259  0.49680  1.0000
  C   C5        1.0  0.41548  0.23369  0.04400  1.0000
  C   C6        1.0  0.08452  0.26631  0.54400  1.0000
  C   C7        1.0  0.58452  0.76631  0.95600  1.0000
  C   C8        1.0  0.91547  0.73370  0.45600  1.0000
  N   N1        1.0  0.24928  0.12100  0.93504  1.0000
  N   N2        1.0  0.25073  0.37900  0.43503  1.0000
  N   N3        1.0  0.75073  0.87900  0.06496  1.0000
  N   N4        1.0  0.74927  0.62100  0.56497  1.0000
  N   N5        1.0  0.44796  0.22722  0.96149  1.0000
  N   N6        1.0  0.05205  0.27278  0.46149  1.0000
  N   N7        1.0  0.55204  0.77278  0.03851  1.0000
  N   N8        1.0  0.94795  0.72722  0.53851  1.0000
  N   N9        1.0  0.21526  0.13857  0.07232  1.0000
  N   N10       1.0  0.28474  0.36143  0.57232  1.0000
  N   N11       1.0  0.78474  0.86143  0.92768  1.0000
  N   N12       1.0  0.71526  0.63858  0.42768  1.0000
  N   N13       1.0  0.58731  0.33178  0.09802  1.0000
  N   N14       1.0  0.91269  0.16822  0.59802  1.0000
  N   N15       1.0  0.41269  0.66822  0.90198  1.0000
  N   N16       1.0  0.08731  0.83178  0.40198  1.0000
  O   O1        1.0  0.80479  0.30626  0.83537  1.0000
  O   O2        1.0  0.69521  0.19375  0.33536  1.0000
  O   O3        1.0  0.19521  0.69375  0.16463  1.0000
  O   O4        1.0  0.30479  0.80625  0.66464  1.0000
  O   O5        1.0  0.20227  0.08917  0.85789  1.0000
  O   O6        1.0  0.29773  0.41084  0.35789  1.0000
  O   O7        1.0  0.79772  0.91083  0.14211  1.0000
  O   O8        1.0  0.70227  0.58916  0.64211  1.0000
  O   O9        1.0  0.78081  0.38752  0.06869  1.0000
  O   O10       1.0  0.71920  0.11248  0.56869  1.0000
  O   O11       1.0  0.21920  0.61249  0.93130  1.0000
  O   O12       1.0  0.28080  0.88751  0.43131  1.0000
  O   O13       1.0  0.53674  0.35539  0.17249  1.0000
  O   O14       1.0  0.96326  0.14462  0.67248  1.0000
  O   O15       1.0  0.46326  0.64461  0.82751  1.0000
  O   O16       1.0  0.03675  0.85537  0.32752  1.0000
