data_image0
_chemical_formula_structural       Rb4H16C28O8
_chemical_formula_sum              "Rb4 H16 C28 O8"
_cell_length_a       7.01451
_cell_length_b       6.98788
_cell_length_c       14.3461
_cell_angle_alpha    89.9999
_cell_angle_beta     92.7108
_cell_angle_gamma    89.9999

_space_group_name_H-M_alt    "P 1"
_space_group_IT_number       1

loop_
  _space_group_symop_operation_xyz
  'x, y, z'

loop_
  _atom_site_type_symbol
  _atom_site_label
  _atom_site_symmetry_multiplicity
  _atom_site_fract_x
  _atom_site_fract_y
  _atom_site_fract_z
  _atom_site_occupancy
  Rb  Rb1       1.0  0.72586  0.00960  0.91742  1.0000
  Rb  Rb2       1.0  0.77414  0.50960  0.08258  1.0000
  Rb  Rb3       1.0  0.27414  0.99040  0.08258  1.0000
  Rb  Rb4       1.0  0.22586  0.49040  0.91742  1.0000
  H   H1        1.0  0.84576  0.28030  0.70601  1.0000
  H   H2        1.0  0.65424  0.78030  0.29399  1.0000
  H   H3        1.0  0.15424  0.71970  0.29399  1.0000
  H   H4        1.0  0.34576  0.21970  0.70601  1.0000
  H   H5        1.0  0.74347  0.27596  0.54044  1.0000
  H   H6        1.0  0.75653  0.77596  0.45956  1.0000
  H   H7        1.0  0.25653  0.72404  0.45956  1.0000
  H   H8        1.0  0.24347  0.22404  0.54044  1.0000
  H   H9        1.0  0.34017  0.72961  0.59020  1.0000
  H   H10       1.0  0.15983  0.22961  0.40980  1.0000
  H   H11       1.0  0.65983  0.27038  0.40980  1.0000
  H   H12       1.0  0.84017  0.77039  0.59020  1.0000
  H   H13       1.0  0.44631  0.73071  0.75476  1.0000
  H   H14       1.0  0.05369  0.23071  0.24524  1.0000
  H   H15       1.0  0.55369  0.26929  0.24524  1.0000
  H   H16       1.0  0.94631  0.76929  0.75476  1.0000
  C   C1        1.0  0.70789  0.50428  0.84582  1.0000
  C   C2        1.0  0.79211  0.00428  0.15418  1.0000
  C   C3        1.0  0.29211  0.49572  0.15418  1.0000
  C   C4        1.0  0.20789  0.99572  0.84582  1.0000
  C   C5        1.0  0.65077  0.50364  0.74278  1.0000
  C   C6        1.0  0.84923  0.00363  0.25722  1.0000
  C   C7        1.0  0.34923  0.49637  0.25722  1.0000
  C   C8        1.0  0.15077  0.99636  0.74278  1.0000
  C   C9        1.0  0.73405  0.37797  0.68029  1.0000
  C   C10       1.0  0.76595  0.87796  0.31971  1.0000
  C   C11       1.0  0.26595  0.62204  0.31971  1.0000
  C   C12       1.0  0.23405  0.12203  0.68029  1.0000
  C   C13       1.0  0.67562  0.37706  0.58615  1.0000
  C   C14       1.0  0.82438  0.87707  0.41385  1.0000
  C   C15       1.0  0.32438  0.62293  0.41385  1.0000
  C   C16       1.0  0.17562  0.12293  0.58615  1.0000
  C   C17       1.0  0.53182  0.50156  0.55010  1.0000
  C   C18       1.0  0.96818  0.00156  0.44990  1.0000
  C   C19       1.0  0.46817  0.49844  0.44990  1.0000
  C   C20       1.0  0.03182  0.99844  0.55010  1.0000
  C   C21       1.0  0.45116  0.62919  0.61342  1.0000
  C   C22       1.0  0.04884  0.12919  0.38658  1.0000
  C   C23       1.0  0.54884  0.37080  0.38658  1.0000
  C   C24       1.0  0.95116  0.87081  0.61342  1.0000
  C   C25       1.0  0.51004  0.62999  0.70732  1.0000
  C   C26       1.0  0.98996  0.12998  0.29267  1.0000
  C   C27       1.0  0.48996  0.37001  0.29268  1.0000
  C   C28       1.0  0.01004  0.87001  0.70732  1.0000
  O   O1        1.0  0.61825  0.61831  0.89776  1.0000
  O   O2        1.0  0.88174  0.11831  0.10224  1.0000
  O   O3        1.0  0.38174  0.38169  0.10224  1.0000
  O   O4        1.0  0.11826  0.88169  0.89776  1.0000
  O   O5        1.0  0.84005  0.39106  0.87491  1.0000
  O   O6        1.0  0.65995  0.89106  0.12509  1.0000
  O   O7        1.0  0.15995  0.60894  0.12509  1.0000
  O   O8        1.0  0.34005  0.10894  0.87491  1.0000
