data_image0
_chemical_formula_structural       Cs4H16C28O8
_chemical_formula_sum              "Cs4 H16 C28 O8"
_cell_length_a       7.32491
_cell_length_b       7.28876
_cell_length_c       14.4083
_cell_angle_alpha    90.0001
_cell_angle_beta     89.1866
_cell_angle_gamma    90.0001

_space_group_name_H-M_alt    "P 1"
_space_group_IT_number       1

loop_
  _space_group_symop_operation_xyz
  'x, y, z'

loop_
  _atom_site_type_symbol
  _atom_site_label
  _atom_site_symmetry_multiplicity
  _atom_site_fract_x
  _atom_site_fract_y
  _atom_site_fract_z
  _atom_site_occupancy
  Cs  Cs1       1.0  0.27448  0.51659  0.91073  1.0000
  Cs  Cs2       1.0  0.22552  0.01659  0.08926  1.0000
  Cs  Cs3       1.0  0.72553  0.48341  0.08927  1.0000
  Cs  Cs4       1.0  0.77448  0.98341  0.91073  1.0000
  H   H1        1.0  0.66476  0.70537  0.69922  1.0000
  H   H2        1.0  0.83524  0.20536  0.30077  1.0000
  H   H3        1.0  0.33524  0.29464  0.30077  1.0000
  H   H4        1.0  0.16476  0.79463  0.69923  1.0000
  H   H5        1.0  0.76744  0.71567  0.53666  1.0000
  H   H6        1.0  0.73256  0.21566  0.46334  1.0000
  H   H7        1.0  0.23256  0.28434  0.46334  1.0000
  H   H8        1.0  0.26744  0.78433  0.53666  1.0000
  H   H9        1.0  0.14398  0.27124  0.59053  1.0000
  H   H10       1.0  0.35602  0.77124  0.40947  1.0000
  H   H11       1.0  0.85603  0.72876  0.40947  1.0000
  H   H12       1.0  0.64397  0.22876  0.59053  1.0000
  H   H13       1.0  0.03899  0.26554  0.75225  1.0000
  H   H14       1.0  0.46102  0.76554  0.24775  1.0000
  H   H15       1.0  0.96102  0.73446  0.24775  1.0000
  H   H16       1.0  0.53898  0.23446  0.75225  1.0000
  C   C1        1.0  0.79212  0.48747  0.83967  1.0000
  C   C2        1.0  0.70788  0.98747  0.16033  1.0000
  C   C3        1.0  0.20788  0.51254  0.16033  1.0000
  C   C4        1.0  0.29212  0.01253  0.83967  1.0000
  C   C5        1.0  0.84772  0.48777  0.73798  1.0000
  C   C6        1.0  0.65228  0.98777  0.26202  1.0000
  C   C7        1.0  0.15228  0.51223  0.26202  1.0000
  C   C8        1.0  0.34772  0.01223  0.73798  1.0000
  C   C9        1.0  0.77135  0.61175  0.67500  1.0000
  C   C10       1.0  0.72865  0.11174  0.32499  1.0000
  C   C11       1.0  0.22865  0.38826  0.32500  1.0000
  C   C12       1.0  0.27135  0.88825  0.67501  1.0000
  C   C13       1.0  0.83006  0.61609  0.58273  1.0000
  C   C14       1.0  0.66994  0.11608  0.41728  1.0000
  C   C15       1.0  0.16995  0.38392  0.41727  1.0000
  C   C16       1.0  0.33005  0.88391  0.58273  1.0000
  C   C17       1.0  0.96734  0.49637  0.54899  1.0000
  C   C18       1.0  0.53266  0.99636  0.45101  1.0000
  C   C19       1.0  0.03266  0.50364  0.45101  1.0000
  C   C20       1.0  0.46734  0.00363  0.54899  1.0000
  C   C21       1.0  0.03964  0.36914  0.61245  1.0000
  C   C22       1.0  0.46036  0.86913  0.38755  1.0000
  C   C23       1.0  0.96036  0.63087  0.38755  1.0000
  C   C24       1.0  0.53963  0.13087  0.61245  1.0000
  C   C25       1.0  0.98100  0.36534  0.70464  1.0000
  C   C26       1.0  0.51900  0.86534  0.29536  1.0000
  C   C27       1.0  0.01900  0.63466  0.29536  1.0000
  C   C28       1.0  0.48100  0.13466  0.70464  1.0000
  O   O1        1.0  0.66466  0.59552  0.86569  1.0000
  O   O2        1.0  0.83533  0.09552  0.13431  1.0000
  O   O3        1.0  0.33534  0.40448  0.13431  1.0000
  O   O4        1.0  0.16466  0.90448  0.86569  1.0000
  O   O5        1.0  0.87913  0.38029  0.89335  1.0000
  O   O6        1.0  0.62086  0.88030  0.10665  1.0000
  O   O7        1.0  0.12087  0.61971  0.10666  1.0000
  O   O8        1.0  0.37913  0.11970  0.89335  1.0000
