data_image0
_chemical_formula_structural       Sn2H48C32S2Cl4O10
_chemical_formula_sum              "Sn2 H48 C32 S2 Cl4 O10"
_cell_length_a       8.93638
_cell_length_b       9.68626
_cell_length_c       12.5176
_cell_angle_alpha    86.1314
_cell_angle_beta     87.0778
_cell_angle_gamma    73.5883

_space_group_name_H-M_alt    "P 1"
_space_group_IT_number       1

loop_
  _space_group_symop_operation_xyz
  'x, y, z'

loop_
  _atom_site_type_symbol
  _atom_site_label
  _atom_site_symmetry_multiplicity
  _atom_site_fract_x
  _atom_site_fract_y
  _atom_site_fract_z
  _atom_site_occupancy
  Sn  Sn1       1.0  0.65006  0.67535  0.76425  1.0000
  Sn  Sn2       1.0  0.34993  0.32465  0.23574  1.0000
  H   H1        1.0  0.70156  0.51030  0.94468  1.0000
  H   H2        1.0  0.29845  0.48971  0.05531  1.0000
  H   H3        1.0  0.49976  0.56713  0.91833  1.0000
  H   H4        1.0  0.50024  0.43288  0.08167  1.0000
  H   H5        1.0  0.57519  0.30636  0.90899  1.0000
  H   H6        1.0  0.42480  0.69365  0.09101  1.0000
  H   H7        1.0  0.55491  0.37517  0.77556  1.0000
  H   H8        1.0  0.44509  0.62484  0.22443  1.0000
  H   H9        1.0  0.86035  0.25694  0.89390  1.0000
  H   H10       1.0  0.13965  0.74306  0.10610  1.0000
  H   H11       1.0  0.85005  0.33864  0.76301  1.0000
  H   H12       1.0  0.14995  0.66136  0.23699  1.0000
  H   H13       1.0  0.74070  0.07003  0.82895  1.0000
  H   H14       1.0  0.25928  0.92998  0.17106  1.0000
  H   H15       1.0  0.91778  0.06843  0.75725  1.0000
  H   H16       1.0  0.08221  0.93157  0.24275  1.0000
  H   H17       1.0  0.73666  0.15248  0.69767  1.0000
  H   H18       1.0  0.26332  0.84752  0.30234  1.0000
  H   H19       1.0  0.56009  0.93858  0.66940  1.0000
  H   H20       1.0  0.43991  0.06142  0.33060  1.0000
  H   H21       1.0  0.76243  0.88986  0.69737  1.0000
  H   H22       1.0  0.23757  0.11014  0.30264  1.0000
  H   H23       1.0  0.62064  0.79113  0.50637  1.0000
  H   H24       1.0  0.37936  0.20886  0.49363  1.0000
  H   H25       1.0  0.81947  0.73144  0.53728  1.0000
  H   H26       1.0  0.18053  0.26856  0.46273  1.0000
  H   H27       1.0  0.83468  0.98769  0.51492  1.0000
  H   H28       1.0  0.16532  0.01231  0.48508  1.0000
  H   H29       1.0  0.63614  0.04638  0.48407  1.0000
  H   H30       1.0  0.36386  0.95362  0.51593  1.0000
  H   H31       1.0  0.89494  0.83740  0.35383  1.0000
  H   H32       1.0  0.10506  0.16259  0.64616  1.0000
  H   H33       1.0  0.79861  0.02030  0.31484  1.0000
  H   H34       1.0  0.20138  0.97970  0.68516  1.0000
  H   H35       1.0  0.69431  0.88949  0.32308  1.0000
  H   H36       1.0  0.30568  0.11051  0.67693  1.0000
  H   H37       1.0  0.15357  0.32967  0.81338  1.0000
  H   H38       1.0  0.84642  0.67033  0.18662  1.0000
  H   H39       1.0  0.28133  0.41265  0.87404  1.0000
  H   H40       1.0  0.71866  0.58736  0.12597  1.0000
  H   H41       1.0  0.23164  0.45888  0.73504  1.0000
  H   H42       1.0  0.76835  0.54113  0.26497  1.0000
  H   H43       1.0  0.16701  0.72342  0.76942  1.0000
  H   H44       1.0  0.83299  0.27658  0.23059  1.0000
  H   H45       1.0  0.19889  0.69441  0.91116  1.0000
  H   H46       1.0  0.80111  0.30559  0.08884  1.0000
  H   H47       1.0  0.01771  0.81185  0.86626  1.0000
  H   H48       1.0  0.98229  0.18815  0.13374  1.0000
  C   C1        1.0  0.62412  0.50213  0.56730  1.0000
  C   C2        1.0  0.37589  0.49787  0.43269  1.0000
  C   C3        1.0  0.54422  0.40892  0.41003  1.0000
  C   C4        1.0  0.45579  0.59108  0.58996  1.0000
  C   C5        1.0  0.66051  0.41341  0.47966  1.0000
  C   C6        1.0  0.33950  0.58659  0.52033  1.0000
  C   C7        1.0  0.45653  0.91844  0.91992  1.0000
  C   C8        1.0  0.54348  0.08156  0.08009  1.0000
  C   C9        1.0  0.37490  0.11207  0.04514  1.0000
  C   C10       1.0  0.62511  0.88792  0.95486  1.0000
  C   C11       1.0  0.34015  0.02992  0.96678  1.0000
  C   C12       1.0  0.65985  0.97008  0.03323  1.0000
  C   C13       1.0  0.61564  0.51510  0.88366  1.0000
  C   C14       1.0  0.38436  0.48490  0.11634  1.0000
  C   C15       1.0  0.62688  0.36626  0.84600  1.0000
  C   C16       1.0  0.37312  0.63375  0.15400  1.0000
  C   C17       1.0  0.79337  0.27642  0.82014  1.0000
  C   C18       1.0  0.20663  0.72358  0.17986  1.0000
  C   C19       1.0  0.79778  0.13392  0.77368  1.0000
  C   C20       1.0  0.20221  0.86608  0.22632  1.0000
  C   C21       1.0  0.67162  0.85501  0.66016  1.0000
  C   C22       1.0  0.32838  0.14499  0.33984  1.0000
  C   C23       1.0  0.71425  0.82339  0.54335  1.0000
  C   C24       1.0  0.28575  0.17660  0.45665  1.0000
  C   C25       1.0  0.74167  0.95433  0.47834  1.0000
  C   C26       1.0  0.25833  0.04567  0.52166  1.0000
  C   C27       1.0  0.78520  0.92399  0.36114  1.0000
  C   C28       1.0  0.21480  0.07601  0.63887  1.0000
  C   C29       1.0  0.19087  0.42802  0.81477  1.0000
  C   C30       1.0  0.80913  0.57198  0.18523  1.0000
  C   C31       1.0  0.11182  0.71487  0.84896  1.0000
  C   C32       1.0  0.88818  0.28514  0.15104  1.0000
  S   S1        1.0  0.02403  0.56903  0.85642  1.0000
  S   S2        1.0  0.97597  0.43097  0.14359  1.0000
  Cl  Cl1       1.0  0.85065  0.31339  0.45676  1.0000
  Cl  Cl2       1.0  0.14935  0.68662  0.54323  1.0000
  Cl  Cl3       1.0  0.14939  0.06327  0.93005  1.0000
  Cl  Cl4       1.0  0.85062  0.93673  0.06996  1.0000
  O   O1        1.0  0.72493  0.51378  0.63101  1.0000
  O   O2        1.0  0.27508  0.48621  0.36898  1.0000
  O   O3        1.0  0.56822  0.33554  0.32713  1.0000
  O   O4        1.0  0.43179  0.66446  0.67286  1.0000
  O   O5        1.0  0.43148  0.83944  0.85031  1.0000
  O   O6        1.0  0.56853  0.16056  0.14969  1.0000
  O   O7        1.0  0.27412  0.21244  0.09078  1.0000
  O   O8        1.0  0.72588  0.78757  0.90922  1.0000
  O   O9        1.0  0.91806  0.59606  0.76003  1.0000
  O   O10       1.0  0.08194  0.40394  0.23997  1.0000
