data_image0
_chemical_formula_structural       H10Pb2C16N2O14
_chemical_formula_sum              "H10 Pb2 C16 N2 O14"
_cell_length_a       7.09404
_cell_length_b       7.48615
_cell_length_c       9.7639
_cell_angle_alpha    89.112
_cell_angle_beta     82.4537
_cell_angle_gamma    76.842

_space_group_name_H-M_alt    "P 1"
_space_group_IT_number       1

loop_
  _space_group_symop_operation_xyz
  'x, y, z'

loop_
  _atom_site_type_symbol
  _atom_site_label
  _atom_site_symmetry_multiplicity
  _atom_site_fract_x
  _atom_site_fract_y
  _atom_site_fract_z
  _atom_site_occupancy
  H   H1        1.0  0.75558  0.17841  0.66106  1.0000
  H   H2        1.0  0.24440  0.82159  0.33893  1.0000
  H   H3        1.0  0.73819  0.76031  0.36528  1.0000
  H   H4        1.0  0.26182  0.23969  0.63472  1.0000
  H   H5        1.0  0.76019  0.53045  0.55250  1.0000
  H   H6        1.0  0.23982  0.46956  0.44750  1.0000
  H   H7        1.0  0.73902  0.76513  0.11696  1.0000
  H   H8        1.0  0.26098  0.23487  0.88303  1.0000
  H   H9        1.0  0.51992  0.75376  0.14438  1.0000
  H   H10       1.0  0.48008  0.24624  0.85562  1.0000
  Pb  Pb1       1.0  0.77011  0.36005  0.08741  1.0000
  Pb  Pb2       1.0  0.22988  0.63994  0.91258  1.0000
  C   C1        1.0  0.77424  0.72341  0.71153  1.0000
  C   C2        1.0  0.22577  0.27658  0.28848  1.0000
  C   C3        1.0  0.77088  0.90748  0.74332  1.0000
  C   C4        1.0  0.22911  0.09253  0.25668  1.0000
  C   C5        1.0  0.75948  0.03587  0.63791  1.0000
  C   C6        1.0  0.24051  0.96414  0.36210  1.0000
  C   C7        1.0  0.75166  0.97989  0.50377  1.0000
  C   C8        1.0  0.24834  0.02012  0.49624  1.0000
  C   C9        1.0  0.75115  0.79901  0.47043  1.0000
  C   C10       1.0  0.24886  0.20099  0.52957  1.0000
  C   C11       1.0  0.76248  0.67171  0.57591  1.0000
  C   C12       1.0  0.23754  0.32829  0.42408  1.0000
  C   C13       1.0  0.77849  0.58021  0.82172  1.0000
  C   C14       1.0  0.22152  0.41978  0.17827  1.0000
  C   C15       1.0  0.77586  0.97145  0.88852  1.0000
  C   C16       1.0  0.22413  0.02855  0.11149  1.0000
  N   N1        1.0  0.73958  0.11565  0.39495  1.0000
  N   N2        1.0  0.26042  0.88435  0.60505  1.0000
  O   O1        1.0  0.61537  0.55926  0.88232  1.0000
  O   O2        1.0  0.38464  0.44072  0.11766  1.0000
  O   O3        1.0  0.94081  0.48285  0.84766  1.0000
  O   O4        1.0  0.05920  0.51715  0.15233  1.0000
  O   O5        1.0  0.86594  0.85995  0.96961  1.0000
  O   O6        1.0  0.13406  0.14005  0.03040  1.0000
  O   O7        1.0  0.68719  0.13707  0.91869  1.0000
  O   O8        1.0  0.31280  0.86293  0.08132  1.0000
  O   O9        1.0  0.75431  0.27374  0.42170  1.0000
  O   O10       1.0  0.24569  0.72627  0.57831  1.0000
  O   O11       1.0  0.71519  0.06706  0.27809  1.0000
  O   O12       1.0  0.28481  0.93295  0.72191  1.0000
  O   O13       1.0  0.65123  0.69657  0.17091  1.0000
  O   O14       1.0  0.34877  0.30343  0.82908  1.0000
