data_image0
_chemical_formula_structural       Sr2Cu4H24C20N8O26
_chemical_formula_sum              "Sr2 Cu4 H24 C20 N8 O26"
_cell_length_a       9.10318
_cell_length_b       9.16294
_cell_length_c       11.71
_cell_angle_alpha    92.1228
_cell_angle_beta     109.992
_cell_angle_gamma    112.177

_space_group_name_H-M_alt    "P 1"
_space_group_IT_number       1

loop_
  _space_group_symop_operation_xyz
  'x, y, z'

loop_
  _atom_site_type_symbol
  _atom_site_label
  _atom_site_symmetry_multiplicity
  _atom_site_fract_x
  _atom_site_fract_y
  _atom_site_fract_z
  _atom_site_occupancy
  Sr  Sr1       1.0  0.76990  0.50721  0.06392  1.0000
  Sr  Sr2       1.0  0.23010  0.49278  0.93608  1.0000
  Cu  Cu1       1.0  0.43267  0.32035  0.68120  1.0000
  Cu  Cu2       1.0  0.56734  0.67966  0.31882  1.0000
  Cu  Cu3       1.0  0.31871  0.19030  0.33109  1.0000
  Cu  Cu4       1.0  0.68128  0.80969  0.66890  1.0000
  H   H1        1.0  0.95618  0.49619  0.57822  1.0000
  H   H2        1.0  0.04382  0.50382  0.42178  1.0000
  H   H3        1.0  0.20115  0.88014  0.56936  1.0000
  H   H4        1.0  0.79885  0.11985  0.43063  1.0000
  H   H5        1.0  0.94928  0.83048  0.94979  1.0000
  H   H6        1.0  0.05072  0.16952  0.05021  1.0000
  H   H7        1.0  0.00580  0.88548  0.09282  1.0000
  H   H8        1.0  0.99420  0.11452  0.90718  1.0000
  H   H9        1.0  0.72953  0.14014  0.04056  1.0000
  H   H10       1.0  0.27046  0.85986  0.95943  1.0000
  H   H11       1.0  0.83809  0.22395  0.96663  1.0000
  H   H12       1.0  0.16191  0.77605  0.03336  1.0000
  H   H13       1.0  0.62977  0.77012  0.04791  1.0000
  H   H14       1.0  0.37024  0.22988  0.95208  1.0000
  H   H15       1.0  0.55883  0.71382  0.90227  1.0000
  H   H16       1.0  0.44117  0.28618  0.09773  1.0000
  H   H17       1.0  0.36665  0.03639  0.77789  1.0000
  H   H18       1.0  0.63335  0.96361  0.22211  1.0000
  H   H19       1.0  0.56552  0.14147  0.84284  1.0000
  H   H20       1.0  0.43448  0.85853  0.15716  1.0000
  H   H21       1.0  0.22006  0.86853  0.32551  1.0000
  H   H22       1.0  0.77993  0.13147  0.67449  1.0000
  H   H23       1.0  0.40924  0.94007  0.32111  1.0000
  H   H24       1.0  0.59075  0.05994  0.67889  1.0000
  C   C1        1.0  0.67871  0.36983  0.44407  1.0000
  C   C2        1.0  0.32129  0.63018  0.55593  1.0000
  C   C3        1.0  0.81949  0.44293  0.55803  1.0000
  C   C4        1.0  0.18051  0.55707  0.44197  1.0000
  C   C5        1.0  0.74345  0.43317  0.64534  1.0000
  C   C6        1.0  0.25655  0.56682  0.35466  1.0000
  C   C7        1.0  0.64413  0.33401  0.31030  1.0000
  C   C8        1.0  0.35588  0.66599  0.68971  1.0000
  C   C9        1.0  0.79658  0.47572  0.78088  1.0000
  C   C10       1.0  0.20342  0.52428  0.21912  1.0000
  C   C11       1.0  0.99496  0.86282  0.63966  1.0000
  C   C12       1.0  0.00503  0.13718  0.36034  1.0000
  C   C13       1.0  0.06769  0.84960  0.55338  1.0000
  C   C14       1.0  0.93231  0.15039  0.44663  1.0000
  C   C15       1.0  0.92639  0.78950  0.43987  1.0000
  C   C16       1.0  0.07361  0.21051  0.56012  1.0000
  C   C17       1.0  0.05437  0.91558  0.77385  1.0000
  C   C18       1.0  0.94563  0.08442  0.22615  1.0000
  C   C19       1.0  0.88969  0.73742  0.30908  1.0000
  C   C20       1.0  0.11031  0.26258  0.69092  1.0000
  N   N1        1.0  0.57004  0.35844  0.58440  1.0000
  N   N2        1.0  0.42997  0.64157  0.41562  1.0000
  N   N3        1.0  0.53195  0.32141  0.46655  1.0000
  N   N4        1.0  0.46805  0.67859  0.53343  1.0000
  N   N5        1.0  0.78238  0.77022  0.46046  1.0000
  N   N6        1.0  0.21762  0.22979  0.53956  1.0000
  N   N7        1.0  0.82257  0.81297  0.57815  1.0000
  N   N8        1.0  0.17743  0.18702  0.42183  1.0000
  O   O1        1.0  0.66957  0.45348  0.81707  1.0000
  O   O2        1.0  0.33043  0.54651  0.18293  1.0000
  O   O3        1.0  0.94900  0.52640  0.85590  1.0000
  O   O4        1.0  0.05099  0.47359  0.14410  1.0000
  O   O5        1.0  0.48031  0.25380  0.24023  1.0000
  O   O6        1.0  0.51970  0.74620  0.75977  1.0000
  O   O7        1.0  0.76000  0.37866  0.26837  1.0000
  O   O8        1.0  0.23999  0.62134  0.73163  1.0000
  O   O9        1.0  0.72761  0.68026  0.23545  1.0000
  O   O10       1.0  0.27239  0.31973  0.76455  1.0000
  O   O11       1.0  0.00240  0.74253  0.26871  1.0000
  O   O12       1.0  0.99761  0.25748  0.73129  1.0000
  O   O13       1.0  0.93275  0.90201  0.81353  1.0000
  O   O14       1.0  0.06725  0.09799  0.18647  1.0000
  O   O15       1.0  0.21178  0.97175  0.84346  1.0000
  O   O16       1.0  0.78822  0.02825  0.15655  1.0000
  O   O17       1.0  0.97304  0.79252  0.02992  1.0000
  O   O18       1.0  0.02696  0.20748  0.97008  1.0000
  O   O19       1.0  0.73169  0.21262  0.97980  1.0000
  O   O20       1.0  0.26831  0.78738  0.02019  1.0000
  O   O21       1.0  0.56464  0.67463  0.98212  1.0000
  O   O22       1.0  0.43537  0.32537  0.01788  1.0000
  O   O23       1.0  0.46817  0.10249  0.75952  1.0000
  O   O24       1.0  0.53182  0.89751  0.24048  1.0000
  O   O25       1.0  0.33359  0.96137  0.35657  1.0000
  O   O26       1.0  0.66640  0.03863  0.64343  1.0000
