data_image0
_chemical_formula_structural       Ni2H22C32N8O14
_chemical_formula_sum              "Ni2 H22 C32 N8 O14"
_cell_length_a       7.1832
_cell_length_b       7.5101
_cell_length_c       14.5566
_cell_angle_alpha    97.9965
_cell_angle_beta     99.926
_cell_angle_gamma    89.54

_space_group_name_H-M_alt    "P 1"
_space_group_IT_number       1

loop_
  _space_group_symop_operation_xyz
  'x, y, z'

loop_
  _atom_site_type_symbol
  _atom_site_label
  _atom_site_symmetry_multiplicity
  _atom_site_fract_x
  _atom_site_fract_y
  _atom_site_fract_z
  _atom_site_occupancy
  Ni  Ni1       1.0  0.50000  0.50000  0.00000  1.0000
  Ni  Ni2       1.0  1.00000  0.00000  1.00000  1.0000
  H   H1        1.0  0.29697  0.13122  0.97918  1.0000
  H   H2        1.0  0.70303  0.86878  0.02081  1.0000
  H   H3        1.0  0.09604  0.94139  0.77578  1.0000
  H   H4        1.0  0.90397  0.05861  0.22423  1.0000
  H   H5        1.0  0.17413  0.51041  0.55902  1.0000
  H   H6        1.0  0.82587  0.48959  0.44098  1.0000
  H   H7        1.0  0.06778  0.70417  0.43755  1.0000
  H   H8        1.0  0.93222  0.29583  0.56246  1.0000
  H   H9        1.0  0.24944  0.25629  0.27057  1.0000
  H   H10       1.0  0.75056  0.74372  0.72943  1.0000
  H   H11       1.0  0.37835  0.43213  0.42491  1.0000
  H   H12       1.0  0.62164  0.56788  0.57509  1.0000
  H   H13       1.0  0.46016  0.76162  0.43223  1.0000
  H   H14       1.0  0.53983  0.23839  0.56777  1.0000
  H   H15       1.0  0.00674  0.14246  0.65602  1.0000
  H   H16       1.0  0.99328  0.85754  0.34398  1.0000
  H   H17       1.0  0.37417  0.78205  0.85092  1.0000
  H   H18       1.0  0.62583  0.21795  0.14909  1.0000
  H   H19       1.0  0.21150  0.23885  0.83022  1.0000
  H   H20       1.0  0.78850  0.76115  0.16978  1.0000
  H   H21       1.0  0.32311  0.91730  0.98746  1.0000
  H   H22       1.0  0.67688  0.08270  0.01253  1.0000
  C   C1        1.0  0.30409  0.65765  0.19415  1.0000
  C   C2        1.0  0.69590  0.34235  0.80585  1.0000
  C   C3        1.0  0.25952  0.75322  0.10802  1.0000
  C   C4        1.0  0.74048  0.24677  0.89197  1.0000
  C   C5        1.0  0.02975  0.94072  0.53632  1.0000
  C   C6        1.0  0.97026  0.05928  0.46368  1.0000
  C   C7        1.0  0.09500  0.89289  0.70151  1.0000
  C   C8        1.0  0.90501  0.10710  0.29850  1.0000
  C   C9        1.0  0.37445  0.75500  0.28312  1.0000
  C   C10       1.0  0.62554  0.24501  0.71688  1.0000
  C   C11       1.0  0.13519  0.64889  0.57903  1.0000
  C   C12       1.0  0.86481  0.35111  0.42097  1.0000
  C   C13       1.0  0.26110  0.47414  0.19116  1.0000
  C   C14       1.0  0.73890  0.52586  0.80883  1.0000
  C   C15       1.0  0.07673  0.76028  0.51125  1.0000
  C   C16       1.0  0.92327  0.23972  0.48875  1.0000
  C   C17       1.0  0.14293  0.71527  0.67384  1.0000
  C   C18       1.0  0.85708  0.28473  0.32616  1.0000
  C   C19       1.0  0.20175  0.34419  0.10200  1.0000
  C   C20       1.0  0.79826  0.65581  0.89800  1.0000
  C   C21       1.0  0.28526  0.39772  0.27490  1.0000
  C   C22       1.0  0.71474  0.60229  0.72510  1.0000
  C   C23       1.0  0.35749  0.49707  0.36161  1.0000
  C   C24       1.0  0.64250  0.50294  0.63839  1.0000
  C   C25       1.0  0.40318  0.67787  0.36623  1.0000
  C   C26       1.0  0.59682  0.32214  0.63377  1.0000
  C   C27       1.0  0.04100  0.00386  0.63299  1.0000
  C   C28       1.0  0.95902  0.99614  0.36701  1.0000
  C   C29       1.0  0.31147  0.64950  0.82788  1.0000
  C   C30       1.0  0.68853  0.35049  0.17212  1.0000
  C   C31       1.0  0.22783  0.37341  0.81347  1.0000
  C   C32       1.0  0.77217  0.62659  0.18653  1.0000
  N   N1        1.0  0.33110  0.50710  0.87377  1.0000
  N   N2        1.0  0.66890  0.49290  0.12623  1.0000
  N   N3        1.0  0.20150  0.60271  0.74347  1.0000
  N   N4        1.0  0.79850  0.39728  0.25653  1.0000
  N   N5        1.0  0.42844  0.94521  0.29170  1.0000
  N   N6        1.0  0.57156  0.05480  0.70829  1.0000
  N   N7        1.0  0.14701  0.42559  0.73274  1.0000
  N   N8        1.0  0.85299  0.57441  0.26727  1.0000
  O   O1        1.0  0.25306  0.00693  0.95042  1.0000
  O   O2        1.0  0.74693  0.99307  0.04958  1.0000
  O   O3        1.0  0.37004  0.73858  0.04749  1.0000
  O   O4        1.0  0.62996  0.26143  0.95251  1.0000
  O   O5        1.0  0.10947  0.84292  0.10330  1.0000
  O   O6        1.0  0.89053  0.15707  0.89670  1.0000
  O   O7        1.0  0.29305  0.34481  0.03358  1.0000
  O   O8        1.0  0.70695  0.65519  0.96642  1.0000
  O   O9        1.0  0.44548  0.03719  0.37055  1.0000
  O   O10       1.0  0.55452  0.96281  0.62945  1.0000
  O   O11       1.0  0.45664  0.00407  0.21938  1.0000
  O   O12       1.0  0.54334  0.99594  0.78061  1.0000
  O   O13       1.0  0.07375  0.22984  0.10237  1.0000
  O   O14       1.0  0.92625  0.77016  0.89762  1.0000
