data_image0
_chemical_formula_structural       Cd3P2H28C22N2O14
_chemical_formula_sum              "Cd3 P2 H28 C22 N2 O14"
_cell_length_a       7.69642
_cell_length_b       9.28787
_cell_length_c       9.75
_cell_angle_alpha    105.094
_cell_angle_beta     93.2094
_cell_angle_gamma    102.64

_space_group_name_H-M_alt    "P 1"
_space_group_IT_number       1

loop_
  _space_group_symop_operation_xyz
  'x, y, z'

loop_
  _atom_site_type_symbol
  _atom_site_label
  _atom_site_symmetry_multiplicity
  _atom_site_fract_x
  _atom_site_fract_y
  _atom_site_fract_z
  _atom_site_occupancy
  Cd  Cd1       1.0  0.94652  0.83684  0.83624  1.0000
  Cd  Cd2       1.0  0.05349  0.16316  0.16376  1.0000
  Cd  Cd3       1.0  0.50000  0.99999  0.99999  1.0000
  P   P1        1.0  0.14926  0.78037  0.08204  1.0000
  P   P2        1.0  0.85074  0.21963  0.91796  1.0000
  H   H1        1.0  0.91299  0.50749  0.13943  1.0000
  H   H2        1.0  0.08701  0.49251  0.86058  1.0000
  H   H3        1.0  0.11867  0.80760  0.33459  1.0000
  H   H4        1.0  0.88133  0.19240  0.66541  1.0000
  H   H5        1.0  0.19700  0.64192  0.25488  1.0000
  H   H6        1.0  0.80300  0.35808  0.74512  1.0000
  H   H7        1.0  0.79137  0.72372  0.10505  1.0000
  H   H8        1.0  0.20863  0.27627  0.89494  1.0000
  H   H9        1.0  0.77860  0.77915  0.29238  1.0000
  H   H10       1.0  0.22140  0.22085  0.70762  1.0000
  H   H11       1.0  0.58766  0.47040  0.07743  1.0000
  H   H12       1.0  0.41234  0.52960  0.92257  1.0000
  H   H13       1.0  0.48568  0.62205  0.15415  1.0000
  H   H14       1.0  0.51432  0.37795  0.84584  1.0000
  H   H15       1.0  0.53646  0.58025  0.39269  1.0000
  H   H16       1.0  0.46354  0.41976  0.60731  1.0000
  H   H17       1.0  0.72186  0.33123  0.24658  1.0000
  H   H18       1.0  0.27814  0.66877  0.75342  1.0000
  H   H19       1.0  0.70543  0.39558  0.43268  1.0000
  H   H20       1.0  0.29456  0.60442  0.56732  1.0000
  H   H21       1.0  0.90152  0.65291  0.44762  1.0000
  H   H22       1.0  0.09848  0.34709  0.55238  1.0000
  H   H23       1.0  0.00849  0.50307  0.37218  1.0000
  H   H24       1.0  0.99151  0.49693  0.62782  1.0000
  H   H25       1.0  0.56573  0.88035  0.69074  1.0000
  H   H26       1.0  0.43427  0.11964  0.30926  1.0000
  H   H27       1.0  0.20370  0.06105  0.46862  1.0000
  H   H28       1.0  0.79630  0.93895  0.53138  1.0000
  C   C1        1.0  0.10150  0.71002  0.23900  1.0000
  C   C2        1.0  0.89850  0.28998  0.76100  1.0000
  C   C3        1.0  0.76934  0.68069  0.19867  1.0000
  C   C4        1.0  0.23066  0.31930  0.80133  1.0000
  C   C5        1.0  0.59077  0.56408  0.17397  1.0000
  C   C6        1.0  0.40923  0.43591  0.82603  1.0000
  C   C7        1.0  0.55650  0.49279  0.29841  1.0000
  C   C8        1.0  0.44350  0.50721  0.70159  1.0000
  C   C9        1.0  0.71780  0.43170  0.33424  1.0000
  C   C10       1.0  0.28220  0.56831  0.66577  1.0000
  C   C11       1.0  0.89402  0.55203  0.35650  1.0000
  C   C12       1.0  0.10598  0.44797  0.64350  1.0000
  C   C13       1.0  0.38315  0.36707  0.25296  1.0000
  C   C14       1.0  0.61685  0.63293  0.74704  1.0000
  C   C15       1.0  0.22812  0.92681  0.68107  1.0000
  C   C16       1.0  0.77188  0.07319  0.31893  1.0000
  C   C17       1.0  0.37055  0.96730  0.59027  1.0000
  C   C18       1.0  0.62945  0.03269  0.40973  1.0000
  C   C19       1.0  0.53715  0.93238  0.60693  1.0000
  C   C20       1.0  0.46285  0.06762  0.39307  1.0000
  C   C21       1.0  0.33428  0.03545  0.48272  1.0000
  C   C22       1.0  0.66571  0.96455  0.51728  1.0000
  N   N1        1.0  0.91858  0.60839  0.22579  1.0000
  N   N2        1.0  0.08143  0.39161  0.77422  1.0000
  O   O1        1.0  0.05613  0.65132  0.94791  1.0000
  O   O2        1.0  0.94387  0.34867  0.05209  1.0000
  O   O3        1.0  0.05865  0.91428  0.08773  1.0000
  O   O4        1.0  0.94134  0.08572  0.91227  1.0000
  O   O5        1.0  0.35457  0.82747  0.09530  1.0000
  O   O6        1.0  0.64543  0.17253  0.90469  1.0000
  O   O7        1.0  0.37582  0.24510  0.15162  1.0000
  O   O8        1.0  0.62418  0.75490  0.84839  1.0000
  O   O9        1.0  0.24518  0.38931  0.31408  1.0000
  O   O10       1.0  0.75482  0.61070  0.68592  1.0000
  O   O11       1.0  0.06524  0.88959  0.62627  1.0000
  O   O12       1.0  0.93476  0.11041  0.37372  1.0000
  O   O13       1.0  0.26918  0.92586  0.81057  1.0000
  O   O14       1.0  0.73081  0.07413  0.18943  1.0000
