data_image0
_chemical_formula_structural       Mn2H36C42N8O10
_chemical_formula_sum              "Mn2 H36 C42 N8 O10"
_cell_length_a       6.73889
_cell_length_b       9.7868
_cell_length_c       15.4571
_cell_angle_alpha    73.73
_cell_angle_beta     84.914
_cell_angle_gamma    69.4603

_space_group_name_H-M_alt    "P 1"
_space_group_IT_number       1

loop_
  _space_group_symop_operation_xyz
  'x, y, z'

loop_
  _atom_site_type_symbol
  _atom_site_label
  _atom_site_symmetry_multiplicity
  _atom_site_fract_x
  _atom_site_fract_y
  _atom_site_fract_z
  _atom_site_occupancy
  Mn  Mn1       1.0  0.20090  0.30109  0.53451  1.0000
  Mn  Mn2       1.0  0.79911  0.69890  0.46550  1.0000
  H   H1        1.0  0.62829  0.08650  0.53337  1.0000
  H   H2        1.0  0.37171  0.91350  0.46662  1.0000
  H   H3        1.0  0.64023  0.18893  0.59491  1.0000
  H   H4        1.0  0.35977  0.81107  0.40509  1.0000
  H   H5        1.0  0.45436  0.27537  0.21027  1.0000
  H   H6        1.0  0.54564  0.72464  0.78973  1.0000
  H   H7        1.0  0.28522  0.24169  0.77200  1.0000
  H   H8        1.0  0.71479  0.75831  0.22799  1.0000
  H   H9        1.0  0.59742  0.43919  0.11244  1.0000
  H   H10       1.0  0.40258  0.56081  0.88756  1.0000
  H   H11       1.0  0.60619  0.62996  0.97099  1.0000
  H   H12       1.0  0.39381  0.37004  0.02901  1.0000
  H   H13       1.0  0.13707  0.97398  0.07451  1.0000
  H   H14       1.0  0.86293  0.02602  0.92549  1.0000
  H   H15       1.0  0.13270  0.78359  0.21746  1.0000
  H   H16       1.0  0.86731  0.21641  0.78254  1.0000
  H   H17       1.0  0.23812  0.59260  0.36891  1.0000
  H   H18       1.0  0.76188  0.40740  0.63109  1.0000
  H   H19       1.0  0.40353  0.13539  0.37036  1.0000
  H   H20       1.0  0.59646  0.86461  0.62964  1.0000
  H   H21       1.0  0.20339  0.16054  0.94267  1.0000
  H   H22       1.0  0.79661  0.83946  0.05733  1.0000
  H   H23       1.0  0.48607  0.02018  0.71379  1.0000
  H   H24       1.0  0.51394  0.97982  0.28621  1.0000
  H   H25       1.0  0.18248  0.78792  0.54115  1.0000
  H   H26       1.0  0.81752  0.21208  0.45885  1.0000
  H   H27       1.0  0.00874  0.96712  0.77167  1.0000
  H   H28       1.0  0.99125  0.03288  0.22833  1.0000
  H   H29       1.0  0.09019  0.50102  0.79555  1.0000
  H   H30       1.0  0.90981  0.49898  0.20445  1.0000
  H   H31       1.0  0.00059  0.59067  0.92592  1.0000
  H   H32       1.0  0.99941  0.40933  0.07409  1.0000
  H   H33       1.0  0.82190  0.78036  0.90116  1.0000
  H   H34       1.0  0.17810  0.21965  0.09884  1.0000
  H   H35       1.0  0.09054  0.73920  0.93021  1.0000
  H   H36       1.0  0.90946  0.26081  0.06979  1.0000
  C   C1        1.0  0.49543  0.55625  0.10438  1.0000
  C   C2        1.0  0.50457  0.44375  0.89562  1.0000
  C   C3        1.0  0.50049  0.66393  0.02442  1.0000
  C   C4        1.0  0.49951  0.33607  0.97558  1.0000
  C   C5        1.0  0.36990  0.81612  0.01092  1.0000
  C   C6        1.0  0.63011  0.18388  0.98908  1.0000
  C   C7        1.0  0.24061  0.85689  0.08286  1.0000
  C   C8        1.0  0.75939  0.14311  0.91714  1.0000
  C   C9        1.0  0.23733  0.74971  0.16342  1.0000
  C   C10       1.0  0.76268  0.25030  0.83658  1.0000
  C   C11       1.0  0.36218  0.59605  0.17509  1.0000
  C   C12       1.0  0.63783  0.40395  0.82491  1.0000
  C   C13       1.0  0.35227  0.48174  0.25724  1.0000
  C   C14       1.0  0.64773  0.51826  0.74276  1.0000
  C   C15       1.0  0.29163  0.49311  0.34363  1.0000
  C   C16       1.0  0.70838  0.50689  0.65637  1.0000
  C   C17       1.0  0.37821  0.25544  0.34746  1.0000
  C   C18       1.0  0.62178  0.74456  0.65254  1.0000
  C   C19       1.0  0.36905  0.92580  0.92465  1.0000
  C   C20       1.0  0.63096  0.07420  0.07535  1.0000
  C   C21       1.0  0.28501  0.08289  0.90276  1.0000
  C   C22       1.0  0.71499  0.91711  0.09724  1.0000
  C   C23       1.0  0.43437  0.00928  0.78315  1.0000
  C   C24       1.0  0.56564  0.99072  0.21684  1.0000
  C   C25       1.0  0.13939  0.63298  0.66357  1.0000
  C   C26       1.0  0.86060  0.36702  0.33643  1.0000
  C   C27       1.0  0.14390  0.77346  0.61198  1.0000
  C   C28       1.0  0.85609  0.22654  0.38802  1.0000
  C   C29       1.0  0.09966  0.89339  0.65083  1.0000
  C   C30       1.0  0.90034  0.10660  0.34917  1.0000
  C   C31       1.0  0.04434  0.87258  0.74192  1.0000
  C   C32       1.0  0.95566  0.12742  0.25808  1.0000
  C   C33       1.0  0.04166  0.73130  0.79544  1.0000
  C   C34       1.0  0.95834  0.26870  0.20456  1.0000
  C   C35       1.0  0.09209  0.61165  0.75545  1.0000
  C   C36       1.0  0.90791  0.38835  0.24455  1.0000
  C   C37       1.0  0.12501  0.03778  0.59551  1.0000
  C   C38       1.0  0.87499  0.96222  0.40449  1.0000
  C   C39       1.0  0.17777  0.51161  0.61786  1.0000
  C   C40       1.0  0.82223  0.48839  0.38214  1.0000
  C   C41       1.0  0.98626  0.70900  0.89363  1.0000
  C   C42       1.0  0.01374  0.29100  0.10637  1.0000
  N   N1        1.0  0.30839  0.35171  0.39892  1.0000
  N   N2        1.0  0.69160  0.64829  0.60108  1.0000
  N   N3        1.0  0.40772  0.32901  0.26211  1.0000
  N   N4        1.0  0.59228  0.67099  0.73789  1.0000
  N   N5        1.0  0.32790  0.13262  0.81349  1.0000
  N   N6        1.0  0.67210  0.86738  0.18651  1.0000
  N   N7        1.0  0.46217  0.88174  0.84806  1.0000
  N   N8        1.0  0.53783  0.11826  0.15194  1.0000
  O   O1        1.0  0.23844  0.37227  0.66160  1.0000
  O   O2        1.0  0.76155  0.62772  0.33840  1.0000
  O   O3        1.0  0.14412  0.54932  0.53229  1.0000
  O   O4        1.0  0.85588  0.45068  0.46771  1.0000
  O   O5        1.0  0.23491  0.03932  0.52381  1.0000
  O   O6        1.0  0.76509  0.96068  0.47619  1.0000
  O   O7        1.0  0.04153  0.15855  0.62224  1.0000
  O   O8        1.0  0.95846  0.84145  0.37776  1.0000
  O   O9        1.0  0.54558  0.14657  0.57602  1.0000
  O   O10       1.0  0.45442  0.85343  0.42398  1.0000
