data_image0
_chemical_formula_structural       Zn2H24C32S2N12O8
_chemical_formula_sum              "Zn2 H24 C32 S2 N12 O8"
_cell_length_a       4.85901
_cell_length_b       6.04415
_cell_length_c       27.5255
_cell_angle_alpha    89.9996
_cell_angle_beta     90.0002
_cell_angle_gamma    97.1531

_space_group_name_H-M_alt    "P 1"
_space_group_IT_number       1

loop_
  _space_group_symop_operation_xyz
  'x, y, z'

loop_
  _atom_site_type_symbol
  _atom_site_label
  _atom_site_symmetry_multiplicity
  _atom_site_fract_x
  _atom_site_fract_y
  _atom_site_fract_z
  _atom_site_occupancy
  Zn  Zn1       1.0  0.89360  0.92236  0.25000  1.0000
  Zn  Zn2       1.0  0.10642  0.07761  0.75000  1.0000
  H   H1        1.0  0.47122  0.94699  0.16055  1.0000
  H   H2        1.0  0.52885  0.05304  0.66054  1.0000
  H   H3        1.0  0.52880  0.05304  0.83945  1.0000
  H   H4        1.0  0.47115  0.94692  0.33945  1.0000
  H   H5        1.0  0.06588  0.50633  0.18457  1.0000
  H   H6        1.0  0.93418  0.49367  0.68457  1.0000
  H   H7        1.0  0.93411  0.49365  0.81543  1.0000
  H   H8        1.0  0.06586  0.50633  0.31544  1.0000
  H   H9        1.0  0.13717  0.23997  0.13570  1.0000
  H   H10       1.0  0.86297  0.76010  0.63571  1.0000
  H   H11       1.0  0.86285  0.76007  0.86430  1.0000
  H   H12       1.0  0.13703  0.23987  0.36430  1.0000
  H   H13       1.0  0.24319  0.97394  0.07375  1.0000
  H   H14       1.0  0.75689  0.02613  0.57377  1.0000
  H   H15       1.0  0.75687  0.02614  0.92624  1.0000
  H   H16       1.0  0.24305  0.97383  0.42624  1.0000
  H   H17       1.0  0.66177  0.22655  0.97563  1.0000
  H   H18       1.0  0.33825  0.77348  0.47563  1.0000
  H   H19       1.0  0.33828  0.77347  0.02437  1.0000
  H   H20       1.0  0.66176  0.22654  0.52438  1.0000
  H   H21       1.0  0.55460  0.49129  0.03871  1.0000
  H   H22       1.0  0.44546  0.50876  0.53871  1.0000
  H   H23       1.0  0.44542  0.50872  0.96128  1.0000
  H   H24       1.0  0.55456  0.49126  0.46129  1.0000
  C   C1        1.0  0.59954  0.81471  0.15490  1.0000
  C   C2        1.0  0.40053  0.18533  0.65490  1.0000
  C   C3        1.0  0.40050  0.18532  0.84510  1.0000
  C   C4        1.0  0.59948  0.81465  0.34510  1.0000
  C   C5        1.0  0.90586  0.59457  0.16827  1.0000
  C   C6        1.0  0.09420  0.40545  0.66827  1.0000
  C   C7        1.0  0.09409  0.40544  0.83173  1.0000
  C   C8        1.0  0.90583  0.59453  0.33174  1.0000
  C   C9        1.0  0.84024  0.38458  0.09036  1.0000
  C   C10       1.0  0.15981  0.61544  0.59036  1.0000
  C   C11       1.0  0.15976  0.61542  0.90963  1.0000
  C   C12       1.0  0.84014  0.38451  0.40963  1.0000
  C   C13       1.0  0.03202  0.23670  0.10065  1.0000
  C   C14       1.0  0.96800  0.76332  0.60065  1.0000
  C   C15       1.0  0.96794  0.76331  0.89935  1.0000
  C   C16       1.0  0.03197  0.23663  0.39935  1.0000
  C   C17       1.0  0.09163  0.08635  0.06510  1.0000
  C   C18       1.0  0.90837  0.91366  0.56510  1.0000
  C   C19       1.0  0.90836  0.91367  0.93490  1.0000
  C   C20       1.0  0.09155  0.08630  0.43490  1.0000
  C   C21       1.0  0.96496  0.07848  0.01895  1.0000
  C   C22       1.0  0.03503  0.92151  0.51896  1.0000
  C   C23       1.0  0.03508  0.92156  0.98104  1.0000
  C   C24       1.0  0.96490  0.07845  0.48105  1.0000
  C   C25       1.0  0.76882  0.22680  0.01039  1.0000
  C   C26       1.0  0.23122  0.77324  0.51040  1.0000
  C   C27       1.0  0.23123  0.77324  0.98960  1.0000
  C   C28       1.0  0.76878  0.22679  0.48961  1.0000
  C   C29       1.0  0.70652  0.37774  0.04547  1.0000
  C   C30       1.0  0.29353  0.62231  0.54548  1.0000
  C   C31       1.0  0.29351  0.62230  0.95452  1.0000
  C   C32       1.0  0.70648  0.37767  0.45453  1.0000
  S   S1        1.0  0.43833  0.22437  0.25000  1.0000
  S   S2        1.0  0.56166  0.77563  0.75000  1.0000
  N   N1        1.0  0.78246  0.54637  0.12500  1.0000
  N   N2        1.0  0.21761  0.45367  0.62501  1.0000
  N   N3        1.0  0.21752  0.45364  0.87499  1.0000
  N   N4        1.0  0.78238  0.54631  0.37499  1.0000
  N   N5        1.0  0.58533  0.68551  0.11612  1.0000
  N   N6        1.0  0.41476  0.31456  0.61612  1.0000
  N   N7        1.0  0.41467  0.31453  0.88388  1.0000
  N   N8        1.0  0.58522  0.68543  0.38388  1.0000
  N   N9        1.0  0.79443  0.76545  0.18776  1.0000
  N   N10       1.0  0.20562  0.23457  0.68776  1.0000
  N   N11       1.0  0.20556  0.23456  0.81223  1.0000
  N   N12       1.0  0.79442  0.76542  0.31224  1.0000
  O   O1        1.0  0.36300  0.33410  0.20524  1.0000
  O   O2        1.0  0.63701  0.66591  0.70523  1.0000
  O   O3        1.0  0.63700  0.66588  0.79476  1.0000
  O   O4        1.0  0.36299  0.33410  0.29476  1.0000
  O   O5        1.0  0.30510  0.98093  0.25000  1.0000
  O   O6        1.0  0.69488  0.01907  0.75000  1.0000
  O   O7        1.0  0.74833  0.21206  0.25000  1.0000
  O   O8        1.0  0.25165  0.78790  0.75000  1.0000
