data_image0
_chemical_formula_structural       Cd2H16C12N4Cl4
_chemical_formula_sum              "Cd2 H16 C12 N4 Cl4"
_cell_length_a       6.63023
_cell_length_b       6.60366
_cell_length_c       10.5171
_cell_angle_alpha    71.6861
_cell_angle_beta     83.973
_cell_angle_gamma    70.4875

_space_group_name_H-M_alt    "P 1"
_space_group_IT_number       1

loop_
  _space_group_symop_operation_xyz
  'x, y, z'

loop_
  _atom_site_type_symbol
  _atom_site_label
  _atom_site_symmetry_multiplicity
  _atom_site_fract_x
  _atom_site_fract_y
  _atom_site_fract_z
  _atom_site_occupancy
  Cd  Cd1       1.0  0.49998  0.31997  0.36025  1.0000
  Cd  Cd2       1.0  0.99999  0.41164  0.17707  1.0000
  H   H1        1.0  0.77867  0.86141  0.08660  1.0000
  H   H2        1.0  0.22166  0.05206  0.08698  1.0000
  H   H3        1.0  0.60652  0.72541  0.09033  1.0000
  H   H4        1.0  0.39369  0.18465  0.09047  1.0000
  H   H5        1.0  0.05521  0.86317  0.88824  1.0000
  H   H6        1.0  0.94540  0.24723  0.88863  1.0000
  H   H7        1.0  0.44715  0.75785  0.89759  1.0000
  H   H8        1.0  0.55234  0.34568  0.89761  1.0000
  H   H9        1.0  0.72187  0.87040  0.45051  1.0000
  H   H10       1.0  0.27790  0.67896  0.45078  1.0000
  H   H11       1.0  0.89386  0.00654  0.44676  1.0000
  H   H12       1.0  0.10597  0.54648  0.44690  1.0000
  H   H13       1.0  0.44531  0.86855  0.64882  1.0000
  H   H14       1.0  0.55404  0.48345  0.64890  1.0000
  H   H15       1.0  0.05319  0.97404  0.63951  1.0000
  H   H16       1.0  0.94723  0.38483  0.63989  1.0000
  C   C1        1.0  0.74981  0.80617  0.90858  1.0000
  C   C2        1.0  0.25016  0.28524  0.90875  1.0000
  C   C3        1.0  0.92041  0.86657  0.83567  1.0000
  C   C4        1.0  0.07988  0.29688  0.83595  1.0000
  C   C5        1.0  0.58037  0.80451  0.84068  1.0000
  C   C6        1.0  0.41932  0.35536  0.84079  1.0000
  C   C7        1.0  0.75060  0.92563  0.62853  1.0000
  C   C8        1.0  0.24934  0.44545  0.62876  1.0000
  C   C9        1.0  0.58005  0.86520  0.70145  1.0000
  C   C10       1.0  0.41957  0.43376  0.70158  1.0000
  C   C11       1.0  0.92005  0.92731  0.69645  1.0000
  C   C12       1.0  0.08017  0.37524  0.69673  1.0000
  N   N1        1.0  0.75019  0.74423  0.05176  1.0000
  N   N2        1.0  0.24997  0.20423  0.05198  1.0000
  N   N3        1.0  0.75024  0.98762  0.48535  1.0000
  N   N4        1.0  0.24959  0.52678  0.48556  1.0000
  Cl  Cl1       1.0  0.73931  0.18506  0.15868  1.0000
  Cl  Cl2       1.0  0.26087  0.65649  0.15876  1.0000
  Cl  Cl3       1.0  0.76072  0.54672  0.37849  1.0000
  Cl  Cl4       1.0  0.23941  0.07479  0.37852  1.0000
