data_image0
_chemical_formula_structural       Li4H32C20N4O12
_chemical_formula_sum              "Li4 H32 C20 N4 O12"
_cell_length_a       4.9765
_cell_length_b       11.8844
_cell_length_c       13.6433
_cell_angle_alpha    70.1328
_cell_angle_beta     79.5
_cell_angle_gamma    77.9113

_space_group_name_H-M_alt    "P 1"
_space_group_IT_number       1

loop_
  _space_group_symop_operation_xyz
  'x, y, z'

loop_
  _atom_site_type_symbol
  _atom_site_label
  _atom_site_symmetry_multiplicity
  _atom_site_fract_x
  _atom_site_fract_y
  _atom_site_fract_z
  _atom_site_occupancy
  Li  Li1       1.0  0.85798  0.72830  0.69368  1.0000
  Li  Li2       1.0  0.28004  0.77169  0.80626  1.0000
  Li  Li3       1.0  0.14202  0.27170  0.30632  1.0000
  Li  Li4       1.0  0.71996  0.22831  0.19374  1.0000
  H   H1        1.0  0.91236  0.04527  0.40691  1.0000
  H   H2        1.0  0.36443  0.45476  0.09312  1.0000
  H   H3        1.0  0.08764  0.95473  0.59309  1.0000
  H   H4        1.0  0.63557  0.54524  0.90688  1.0000
  H   H5        1.0  0.68496  0.01051  0.33876  1.0000
  H   H6        1.0  0.03415  0.48956  0.16124  1.0000
  H   H7        1.0  0.31504  0.98949  0.66124  1.0000
  H   H8        1.0  0.96585  0.51044  0.83876  1.0000
  H   H9        1.0  0.83339  0.52140  0.64795  1.0000
  H   H10       1.0  0.00289  0.97864  0.85195  1.0000
  H   H11       1.0  0.16661  0.47860  0.35205  1.0000
  H   H12       1.0  0.99710  0.02136  0.14805  1.0000
  H   H13       1.0  0.33077  0.41002  0.64513  1.0000
  H   H14       1.0  0.38593  0.08985  0.85501  1.0000
  H   H15       1.0  0.66922  0.58998  0.35487  1.0000
  H   H16       1.0  0.61406  0.91015  0.14499  1.0000
  H   H17       1.0  0.96639  0.34017  0.58845  1.0000
  H   H18       1.0  0.89507  0.15982  0.91159  1.0000
  H   H19       1.0  0.03361  0.65983  0.41155  1.0000
  H   H20       1.0  0.10493  0.84018  0.08841  1.0000
  H   H21       1.0  0.71156  0.32832  0.51810  1.0000
  H   H22       1.0  0.55806  0.17167  0.98195  1.0000
  H   H23       1.0  0.28844  0.67168  0.48190  1.0000
  H   H24       1.0  0.44195  0.82833  0.01805  1.0000
  H   H25       1.0  0.73399  0.23315  0.64874  1.0000
  H   H26       1.0  0.61582  0.26676  0.85128  1.0000
  H   H27       1.0  0.26600  0.76685  0.35126  1.0000
  H   H28       1.0  0.38418  0.73324  0.14872  1.0000
  H   H29       1.0  0.62793  0.82899  0.47481  1.0000
  H   H30       1.0  0.93168  0.67107  0.02512  1.0000
  H   H31       1.0  0.37207  0.17101  0.52519  1.0000
  H   H32       1.0  0.06832  0.32893  0.97488  1.0000
  C   C1        1.0  0.40877  0.59814  0.69567  1.0000
  C   C2        1.0  0.70265  0.90188  0.80426  1.0000
  C   C3        1.0  0.59122  0.40186  0.30433  1.0000
  C   C4        1.0  0.29735  0.09812  0.19574  1.0000
  C   C5        1.0  0.61773  0.50901  0.65663  1.0000
  C   C6        1.0  0.78349  0.99098  0.84333  1.0000
  C   C7        1.0  0.38227  0.49099  0.34337  1.0000
  C   C8        1.0  0.21651  0.00902  0.15667  1.0000
  C   C9        1.0  0.55080  0.41753  0.63417  1.0000
  C   C10       1.0  0.60255  0.08239  0.86592  1.0000
  C   C11       1.0  0.44920  0.58247  0.36583  1.0000
  C   C12       1.0  0.39745  0.91761  0.13408  1.0000
  C   C13       1.0  0.75192  0.32552  0.59561  1.0000
  C   C14       1.0  0.67309  0.17441  0.90443  1.0000
  C   C15       1.0  0.24807  0.67448  0.40439  1.0000
  C   C16       1.0  0.32691  0.82559  0.09557  1.0000
  C   C17       1.0  0.77071  0.88535  0.48147  1.0000
  C   C18       1.0  0.13742  0.61465  0.01848  1.0000
  C   C19       1.0  0.22929  0.11465  0.51853  1.0000
  C   C20       1.0  0.86258  0.38536  0.98151  1.0000
  N   N1        1.0  0.79368  0.98624  0.40211  1.0000
  N   N2        1.0  0.18191  0.51380  0.09790  1.0000
  N   N3        1.0  0.20632  0.01376  0.59789  1.0000
  N   N4        1.0  0.81809  0.48620  0.90210  1.0000
  O   O1        1.0  0.49798  0.68330  0.71181  1.0000
  O   O2        1.0  0.89315  0.81671  0.78811  1.0000
  O   O3        1.0  0.50202  0.31670  0.28819  1.0000
  O   O4        1.0  0.10685  0.18329  0.21189  1.0000
  O   O5        1.0  0.15279  0.58816  0.71139  1.0000
  O   O6        1.0  0.45237  0.91189  0.78854  1.0000
  O   O7        1.0  0.84721  0.41184  0.28861  1.0000
  O   O8        1.0  0.54763  0.08811  0.21146  1.0000
  O   O9        1.0  0.89863  0.85232  0.56043  1.0000
  O   O10       1.0  0.31125  0.64757  0.93951  1.0000
  O   O11       1.0  0.10137  0.14768  0.43957  1.0000
  O   O12       1.0  0.68876  0.35243  0.06049  1.0000
