data_image0
_chemical_formula_structural       Zn2H16C12N4Cl4
_chemical_formula_sum              "Zn2 H16 C12 N4 Cl4"
_cell_length_a       4.71092
_cell_length_b       6.00381
_cell_length_c       15.9287
_cell_angle_alpha    81.4368
_cell_angle_beta     83.858
_cell_angle_gamma    70.8434

_space_group_name_H-M_alt    "P 1"
_space_group_IT_number       1

loop_
  _space_group_symop_operation_xyz
  'x, y, z'

loop_
  _atom_site_type_symbol
  _atom_site_label
  _atom_site_symmetry_multiplicity
  _atom_site_fract_x
  _atom_site_fract_y
  _atom_site_fract_z
  _atom_site_occupancy
  Zn  Zn1       1.0  0.96500  0.68430  0.74544  1.0000
  Zn  Zn2       1.0  0.03500  0.31572  0.25456  1.0000
  H   H1        1.0  0.81447  0.33323  0.82643  1.0000
  H   H2        1.0  0.53589  0.01875  0.67527  1.0000
  H   H3        1.0  0.18558  0.66678  0.17357  1.0000
  H   H4        1.0  0.46407  0.98123  0.32474  1.0000
  H   H5        1.0  0.54176  0.58801  0.84264  1.0000
  H   H6        1.0  0.56059  0.76411  0.64081  1.0000
  H   H7        1.0  0.45827  0.41198  0.15736  1.0000
  H   H8        1.0  0.43939  0.23586  0.35920  1.0000
  H   H9        1.0  0.28589  0.20381  0.90266  1.0000
  H   H10       1.0  0.97260  0.19278  0.62953  1.0000
  H   H11       1.0  0.71415  0.79620  0.09734  1.0000
  H   H12       1.0  0.02735  0.80724  0.37046  1.0000
  H   H13       1.0  0.50659  0.79153  0.96056  1.0000
  H   H14       1.0  0.74939  0.69354  0.50122  1.0000
  H   H15       1.0  0.49347  0.20846  0.03944  1.0000
  H   H16       1.0  0.25054  0.30647  0.49878  1.0000
  C   C1        1.0  0.88325  0.49731  0.92330  1.0000
  C   C2        1.0  0.84111  0.93710  0.57388  1.0000
  C   C3        1.0  0.11680  0.50270  0.07670  1.0000
  C   C4        1.0  0.15882  0.06291  0.42612  1.0000
  C   C5        1.0  0.16094  0.33355  0.94545  1.0000
  C   C6        1.0  0.98233  0.10936  0.57259  1.0000
  C   C7        1.0  0.83912  0.66644  0.05455  1.0000
  C   C8        1.0  0.01762  0.89066  0.42741  1.0000
  C   C9        1.0  0.72342  0.66429  0.97786  1.0000
  C   C10       1.0  0.86017  0.82715  0.50121  1.0000
  C   C11       1.0  0.27665  0.33571  0.02214  1.0000
  C   C12       1.0  0.13977  0.17284  0.49878  1.0000
  N   N1        1.0  0.77003  0.50218  0.84246  1.0000
  N   N2        1.0  0.68332  0.87038  0.65101  1.0000
  N   N3        1.0  0.23001  0.49782  0.15755  1.0000
  N   N4        1.0  0.31666  0.12962  0.34899  1.0000
  Cl  Cl1       1.0  0.37588  0.43679  0.68266  1.0000
  Cl  Cl2       1.0  0.11107  0.94138  0.80771  1.0000
  Cl  Cl3       1.0  0.62410  0.56321  0.31733  1.0000
  Cl  Cl4       1.0  0.88894  0.05863  0.19228  1.0000
