data_image0
_chemical_formula_structural       Zn2H8C4N20
_chemical_formula_sum              "Zn2 H8 C4 N20"
_cell_length_a       9.17706
_cell_length_b       10.3381
_cell_length_c       10.0462
_cell_angle_alpha    121.369
_cell_angle_beta     117.63
_cell_angle_gamma    89.2372

_space_group_name_H-M_alt    "P 1"
_space_group_IT_number       1

loop_
  _space_group_symop_operation_xyz
  'x, y, z'

loop_
  _atom_site_type_symbol
  _atom_site_label
  _atom_site_symmetry_multiplicity
  _atom_site_fract_x
  _atom_site_fract_y
  _atom_site_fract_z
  _atom_site_occupancy
  Zn  Zn1       1.0  0.90330  0.55871  0.72136  1.0000
  Zn  Zn2       1.0  0.68195  0.83736  0.27861  1.0000
  H   H1        1.0  0.72143  0.41020  0.28679  1.0000
  H   H2        1.0  0.93412  0.12332  0.71319  1.0000
  H   H3        1.0  0.71246  0.50277  0.17593  1.0000
  H   H4        1.0  0.03601  0.32682  0.82420  1.0000
  H   H5        1.0  0.77043  0.96850  0.08499  1.0000
  H   H6        1.0  0.18545  0.88321  0.91498  1.0000
  H   H7        1.0  0.84284  0.89099  0.93402  1.0000
  H   H8        1.0  0.40884  0.95664  0.06598  1.0000
  C   C1        1.0  0.79418  0.65244  0.44846  1.0000
  C   C2        1.0  0.84525  0.20400  0.55159  1.0000
  C   C3        1.0  0.78539  0.74374  0.99279  1.0000
  C   C4        1.0  0.29256  0.75060  0.00716  1.0000
  N   N1        1.0  0.74530  0.51037  0.29298  1.0000
  N   N2        1.0  0.95161  0.21744  0.70717  1.0000
  N   N3        1.0  0.79575  0.79272  0.46724  1.0000
  N   N4        1.0  0.82808  0.32547  0.53278  1.0000
  N   N5        1.0  0.86105  0.90832  0.64848  1.0000
  N   N6        1.0  0.71241  0.25984  0.35147  1.0000
  N   N7        1.0  0.89621  0.84497  0.73757  1.0000
  N   N8        1.0  0.65851  0.10739  0.26236  1.0000
  N   N9        1.0  0.85607  0.68424  0.61734  1.0000
  N   N10       1.0  0.73837  0.06691  0.38267  1.0000
  N   N11       1.0  0.82091  0.88632  0.02260  1.0000
  N   N12       1.0  0.29831  0.86337  0.97735  1.0000
  N   N13       1.0  0.79554  0.60713  0.86876  1.0000
  N   N14       1.0  0.42679  0.73802  0.13120  1.0000
  N   N15       1.0  0.75546  0.49418  0.88894  1.0000
  N   N16       1.0  0.36653  0.60492  0.11107  1.0000
  N   N17       1.0  0.72088  0.55766  0.01616  1.0000
  N   N18       1.0  0.20468  0.54119  0.98386  1.0000
  N   N19       1.0  0.73912  0.71498  0.08625  1.0000
  N   N20       1.0  0.15280  0.62839  0.91372  1.0000
