data_image0
_chemical_formula_structural       Cd2H28C28N8O8
_chemical_formula_sum              "Cd2 H28 C28 N8 O8"
_cell_length_a       9.08031
_cell_length_b       10.424
_cell_length_c       10.424
_cell_angle_alpha    82.1425
_cell_angle_beta     65.1603
_cell_angle_gamma    65.1604

_space_group_name_H-M_alt    "P 1"
_space_group_IT_number       1

loop_
  _space_group_symop_operation_xyz
  'x, y, z'

loop_
  _atom_site_type_symbol
  _atom_site_label
  _atom_site_symmetry_multiplicity
  _atom_site_fract_x
  _atom_site_fract_y
  _atom_site_fract_z
  _atom_site_occupancy
  Cd  Cd1       1.0  0.38211  0.06327  0.22033  1.0000
  Cd  Cd2       1.0  0.61789  0.77967  0.93672  1.0000
  H   H1        1.0  0.15153  0.61354  0.75519  1.0000
  H   H2        1.0  0.84847  0.24481  0.38646  1.0000
  H   H3        1.0  0.43060  0.62658  0.79693  1.0000
  H   H4        1.0  0.56940  0.20307  0.37342  1.0000
  H   H5        1.0  0.10041  0.94531  0.41078  1.0000
  H   H6        1.0  0.89960  0.58922  0.05469  1.0000
  H   H7        1.0  0.04425  0.77940  0.60204  1.0000
  H   H8        1.0  0.95574  0.39796  0.22060  1.0000
  H   H9        1.0  0.58437  0.65183  0.55888  1.0000
  H   H10       1.0  0.41563  0.44112  0.34817  1.0000
  H   H11       1.0  0.61692  0.82083  0.36743  1.0000
  H   H12       1.0  0.38308  0.63257  0.17917  1.0000
  H   H13       1.0  0.21818  0.19919  0.98385  1.0000
  H   H14       1.0  0.78182  0.01615  0.80081  1.0000
  H   H15       1.0  0.21145  0.39011  0.81282  1.0000
  H   H16       1.0  0.78855  0.18719  0.60989  1.0000
  H   H17       1.0  0.57615  0.46492  0.92833  1.0000
  H   H18       1.0  0.42385  0.07167  0.53508  1.0000
  H   H19       1.0  0.56305  0.27201  0.09727  1.0000
  H   H20       1.0  0.43695  0.90273  0.72799  1.0000
  H   H21       1.0  0.88548  0.47465  0.48320  1.0000
  H   H22       1.0  0.11452  0.51680  0.52535  1.0000
  H   H23       1.0  0.87129  0.35587  0.61790  1.0000
  H   H24       1.0  0.12870  0.38210  0.64413  1.0000
  H   H25       1.0  0.99109  0.94603  0.22194  1.0000
  H   H26       1.0  0.00891  0.77806  0.05397  1.0000
  H   H27       1.0  0.99613  0.07133  0.09322  1.0000
  H   H28       1.0  0.00387  0.90678  0.92867  1.0000
  C   C1        1.0  0.20510  0.87598  0.44486  1.0000
  C   C2        1.0  0.79490  0.55514  0.12402  1.0000
  C   C3        1.0  0.17389  0.78397  0.55097  1.0000
  C   C4        1.0  0.82611  0.44904  0.21603  1.0000
  C   C5        1.0  0.31040  0.69960  0.59715  1.0000
  C   C6        1.0  0.68960  0.40285  0.30040  1.0000
  C   C7        1.0  0.47424  0.71335  0.52834  1.0000
  C   C8        1.0  0.52576  0.47166  0.28665  1.0000
  C   C9        1.0  0.49226  0.80783  0.42177  1.0000
  C   C10       1.0  0.50774  0.57822  0.19217  1.0000
  C   C11       1.0  0.29457  0.26157  0.96909  1.0000
  C   C12       1.0  0.70543  0.03091  0.73843  1.0000
  C   C13       1.0  0.29203  0.36752  0.87286  1.0000
  C   C14       1.0  0.70797  0.12715  0.63248  1.0000
  C   C15       1.0  0.39239  0.44605  0.85729  1.0000
  C   C16       1.0  0.60761  0.14271  0.55395  1.0000
  C   C17       1.0  0.49443  0.40865  0.93893  1.0000
  C   C18       1.0  0.50557  0.06107  0.59135  1.0000
  C   C19       1.0  0.48746  0.30171  0.03183  1.0000
  C   C20       1.0  0.51254  0.96817  0.69829  1.0000
  C   C21       1.0  0.10849  0.27609  0.42844  1.0000
  C   C22       1.0  0.89151  0.57156  0.72391  1.0000
  C   C23       1.0  0.96479  0.39573  0.53623  1.0000
  C   C24       1.0  0.03520  0.46377  0.60427  1.0000
  C   C25       1.0  0.24071  0.88948  0.04503  1.0000
  C   C26       1.0  0.75929  0.95497  0.11052  1.0000
  C   C27       1.0  0.04001  0.95645  0.10650  1.0000
  C   C28       1.0  0.96000  0.89350  0.04355  1.0000
  N   N1        1.0  0.27840  0.61312  0.70548  1.0000
  N   N2        1.0  0.72160  0.29452  0.38688  1.0000
  N   N3        1.0  0.39612  0.55548  0.77015  1.0000
  N   N4        1.0  0.60388  0.22985  0.44452  1.0000
  N   N5        1.0  0.36126  0.89015  0.37985  1.0000
  N   N6        1.0  0.63875  0.62015  0.10985  1.0000
  N   N7        1.0  0.38794  0.22850  0.04951  1.0000
  N   N8        1.0  0.61206  0.95049  0.77150  1.0000
  O   O1        1.0  0.27017  0.24971  0.39538  1.0000
  O   O2        1.0  0.72983  0.60463  0.75030  1.0000
  O   O3        1.0  0.06107  0.20569  0.37282  1.0000
  O   O4        1.0  0.93893  0.62718  0.79431  1.0000
  O   O5        1.0  0.31950  0.94359  0.08397  1.0000
  O   O6        1.0  0.68050  0.91603  0.05640  1.0000
  O   O7        1.0  0.32622  0.78348  0.95802  1.0000
  O   O8        1.0  0.67378  0.04199  0.21651  1.0000
