data_image0
_chemical_formula_structural       Ba6H18C42N6O24
_chemical_formula_sum              "Ba6 H18 C42 N6 O24"
_cell_length_a       9.45599
_cell_length_b       10.9718
_cell_length_c       12.7294
_cell_angle_alpha    115.523
_cell_angle_beta     91.5073
_cell_angle_gamma    90.0116

_space_group_name_H-M_alt    "P 1"
_space_group_IT_number       1

loop_
  _space_group_symop_operation_xyz
  'x, y, z'

loop_
  _atom_site_type_symbol
  _atom_site_label
  _atom_site_symmetry_multiplicity
  _atom_site_fract_x
  _atom_site_fract_y
  _atom_site_fract_z
  _atom_site_occupancy
  Ba  Ba1       1.0  0.74995  0.92681  0.99999  1.0000
  Ba  Ba2       1.0  0.25005  0.07319  0.00001  1.0000
  Ba  Ba3       1.0  0.92270  0.31904  0.32618  1.0000
  Ba  Ba4       1.0  0.57718  0.99273  0.67383  1.0000
  Ba  Ba5       1.0  0.07730  0.68096  0.67382  1.0000
  Ba  Ba6       1.0  0.42282  0.00727  0.32617  1.0000
  H   H1        1.0  0.90218  0.35401  0.86216  1.0000
  H   H2        1.0  0.59760  0.49182  0.13777  1.0000
  H   H3        1.0  0.09782  0.64599  0.13784  1.0000
  H   H4        1.0  0.40240  0.50818  0.86223  1.0000
  H   H5        1.0  0.74981  0.30360  0.99997  1.0000
  H   H6        1.0  0.25019  0.69640  0.00003  1.0000
  H   H7        1.0  0.32442  0.34632  0.22162  1.0000
  H   H8        1.0  0.17562  0.12476  0.77839  1.0000
  H   H9        1.0  0.67558  0.65369  0.77839  1.0000
  H   H10       1.0  0.82438  0.87525  0.22162  1.0000
  H   H11       1.0  0.27789  0.58780  0.35784  1.0000
  H   H12       1.0  0.22217  0.22997  0.64206  1.0000
  H   H13       1.0  0.72211  0.41221  0.64216  1.0000
  H   H14       1.0  0.77783  0.77003  0.35794  1.0000
  H   H15       1.0  0.47363  0.72422  0.49158  1.0000
  H   H16       1.0  0.02628  0.23262  0.50836  1.0000
  H   H17       1.0  0.52637  0.27578  0.50842  1.0000
  H   H18       1.0  0.97372  0.76738  0.49164  1.0000
  C   C1        1.0  0.58141  0.22031  0.18700  1.0000
  C   C2        1.0  0.91865  0.03304  0.81288  1.0000
  C   C3        1.0  0.41859  0.77969  0.81300  1.0000
  C   C4        1.0  0.08136  0.96696  0.18712  1.0000
  C   C5        1.0  0.83166  0.55881  0.92715  1.0000
  C   C6        1.0  0.66813  0.63161  0.07274  1.0000
  C   C7        1.0  0.16834  0.44119  0.07285  1.0000
  C   C8        1.0  0.33187  0.36839  0.92726  1.0000
  C   C9        1.0  0.83438  0.42984  0.92398  1.0000
  C   C10       1.0  0.66533  0.50581  0.07591  1.0000
  C   C11       1.0  0.16562  0.57016  0.07602  1.0000
  C   C12       1.0  0.33467  0.49419  0.92409  1.0000
  C   C13       1.0  0.74980  0.40303  0.99992  1.0000
  C   C14       1.0  0.25020  0.59697  0.00007  1.0000
  C   C15       1.0  0.91908  0.59448  0.84617  1.0000
  C   C16       1.0  0.58072  0.74820  0.15377  1.0000
  C   C17       1.0  0.08092  0.40552  0.15383  1.0000
  C   C18       1.0  0.41927  0.25179  0.84623  1.0000
  C   C19       1.0  0.74430  0.63674  0.50971  1.0000
  C   C20       1.0  0.75563  0.12694  0.49042  1.0000
  C   C21       1.0  0.25570  0.36326  0.49030  1.0000
  C   C22       1.0  0.24437  0.87306  0.50958  1.0000
  C   C23       1.0  0.54508  0.36187  0.27391  1.0000
  C   C24       1.0  0.95501  0.08789  0.72608  1.0000
  C   C25       1.0  0.45492  0.63813  0.72610  1.0000
  C   C26       1.0  0.04499  0.91211  0.27392  1.0000
  C   C27       1.0  0.40817  0.41138  0.27794  1.0000
  C   C28       1.0  0.09189  0.13349  0.72207  1.0000
  C   C29       1.0  0.59183  0.58862  0.72206  1.0000
  C   C30       1.0  0.90811  0.86651  0.27793  1.0000
  C   C31       1.0  0.38228  0.54458  0.35501  1.0000
  C   C32       1.0  0.11775  0.18963  0.64497  1.0000
  C   C33       1.0  0.61772  0.45542  0.64499  1.0000
  C   C34       1.0  0.88225  0.81037  0.35503  1.0000
  C   C35       1.0  0.49179  0.62068  0.42973  1.0000
  C   C36       1.0  0.00817  0.19094  0.57027  1.0000
  C   C37       1.0  0.50821  0.37932  0.57028  1.0000
  C   C38       1.0  0.99183  0.80905  0.42973  1.0000
  C   C39       1.0  0.62406  0.56198  0.42452  1.0000
  C   C40       1.0  0.87596  0.13730  0.57548  1.0000
  C   C41       1.0  0.37594  0.43801  0.57548  1.0000
  C   C42       1.0  0.12404  0.86270  0.42452  1.0000
  N   N1        1.0  0.74988  0.65750  0.99993  1.0000
  N   N2        1.0  0.25012  0.34249  0.00007  1.0000
  N   N3        1.0  0.65083  0.43592  0.34523  1.0000
  N   N4        1.0  0.84925  0.09043  0.65472  1.0000
  N   N5        1.0  0.34917  0.56408  0.65477  1.0000
  N   N6        1.0  0.15075  0.90957  0.34528  1.0000
  O   O1        1.0  0.71036  0.19615  0.16014  1.0000
  O   O2        1.0  0.78969  0.03574  0.83974  1.0000
  O   O3        1.0  0.28964  0.80385  0.83986  1.0000
  O   O4        1.0  0.21032  0.96427  0.16026  1.0000
  O   O5        1.0  0.48104  0.13383  0.14698  1.0000
  O   O6        1.0  0.01899  0.98655  0.85290  1.0000
  O   O7        1.0  0.51896  0.86618  0.85303  1.0000
  O   O8        1.0  0.98102  0.01344  0.14709  1.0000
  O   O9        1.0  0.91071  0.71699  0.85792  1.0000
  O   O10       1.0  0.58914  0.85905  0.14214  1.0000
  O   O11       1.0  0.08930  0.28301  0.14208  1.0000
  O   O12       1.0  0.41085  0.14094  0.85786  1.0000
  O   O13       1.0  0.72579  0.75849  0.58077  1.0000
  O   O14       1.0  0.77380  0.17802  0.41958  1.0000
  O   O15       1.0  0.27421  0.24151  0.41923  1.0000
  O   O16       1.0  0.22620  0.82199  0.58043  1.0000
  O   O17       1.0  0.99176  0.50440  0.77081  1.0000
  O   O18       1.0  0.50805  0.73340  0.22911  1.0000
  O   O19       1.0  0.00823  0.49559  0.22919  1.0000
  O   O20       1.0  0.49194  0.26659  0.77088  1.0000
  O   O21       1.0  0.85754  0.57109  0.50445  1.0000
  O   O22       1.0  0.64259  0.06618  0.49556  1.0000
  O   O23       1.0  0.14246  0.42891  0.49555  1.0000
  O   O24       1.0  0.35741  0.93382  0.50444  1.0000
