data_image0
_chemical_formula_structural       Co2H30C34Br2N8O8
_chemical_formula_sum              "Co2 H30 C34 Br2 N8 O8"
_cell_length_a       7.74383
_cell_length_b       11.3694
_cell_length_c       11.3693
_cell_angle_alpha    71.3397
_cell_angle_beta     72.4813
_cell_angle_gamma    72.4809

_space_group_name_H-M_alt    "P 1"
_space_group_IT_number       1

loop_
  _space_group_symop_operation_xyz
  'x, y, z'

loop_
  _atom_site_type_symbol
  _atom_site_label
  _atom_site_symmetry_multiplicity
  _atom_site_fract_x
  _atom_site_fract_y
  _atom_site_fract_z
  _atom_site_occupancy
  Co  Co1       1.0  0.62229  0.37688  0.03247  1.0000
  Co  Co2       1.0  0.37770  0.96753  0.62313  1.0000
  H   H1        1.0  0.58806  0.77532  0.97375  1.0000
  H   H2        1.0  0.41195  0.02625  0.22467  1.0000
  H   H3        1.0  0.49999  0.62065  0.37935  1.0000
  H   H4        1.0  0.82874  0.90181  0.34403  1.0000
  H   H5        1.0  0.17126  0.65597  0.09820  1.0000
  H   H6        1.0  1.00000  0.05864  0.94135  1.0000
  H   H7        1.0  0.21211  0.50080  0.98105  1.0000
  H   H8        1.0  0.78789  0.01894  0.49921  1.0000
  H   H9        1.0  0.90981  0.40567  0.15256  1.0000
  H   H10       1.0  0.09019  0.84743  0.59433  1.0000
  H   H11       1.0  0.40537  0.20192  0.27745  1.0000
  H   H12       1.0  0.59463  0.72255  0.79809  1.0000
  H   H13       1.0  0.10643  0.12837  0.40392  1.0000
  H   H14       1.0  0.89358  0.59608  0.87163  1.0000
  H   H15       1.0  0.90130  0.19920  0.34208  1.0000
  H   H16       1.0  0.09870  0.65792  0.80081  1.0000
  H   H17       1.0  0.06036  0.32751  0.47429  1.0000
  H   H18       1.0  0.93964  0.52571  0.67249  1.0000
  H   H19       1.0  0.85905  0.39544  0.41065  1.0000
  H   H20       1.0  0.14095  0.58934  0.60456  1.0000
  H   H21       1.0  0.70870  0.22051  0.56613  1.0000
  H   H22       1.0  0.29130  0.43386  0.77949  1.0000
  H   H23       1.0  0.90650  0.15694  0.63432  1.0000
  H   H24       1.0  0.09350  0.36567  0.84306  1.0000
  H   H25       1.0  0.62567  0.50749  0.54488  1.0000
  H   H26       1.0  0.37433  0.45511  0.49251  1.0000
  H   H27       1.0  0.50334  0.58385  0.76793  1.0000
  H   H28       1.0  0.49667  0.23206  0.41616  1.0000
  H   H29       1.0  0.81586  0.20351  0.84233  1.0000
  H   H30       1.0  0.18414  0.15767  0.79649  1.0000
  C   C1        1.0  0.50001  0.91092  0.08908  1.0000
  C   C2        1.0  0.55050  0.78933  0.06917  1.0000
  C   C3        1.0  0.44950  0.93083  0.21067  1.0000
  C   C4        1.0  0.54950  0.68378  0.17505  1.0000
  C   C5        1.0  0.45050  0.82495  0.31623  1.0000
  C   C6        1.0  0.49999  0.70258  0.29742  1.0000
  C   C7        1.0  0.59610  0.55068  0.15991  1.0000
  C   C8        1.0  0.40390  0.84009  0.44933  1.0000
  C   C9        1.0  0.00000  0.76882  0.23118  1.0000
  C   C10       1.0  0.90439  0.88871  0.24987  1.0000
  C   C11       1.0  0.09561  0.75013  0.11130  1.0000
  C   C12       1.0  0.90497  0.99432  0.14418  1.0000
  C   C13       1.0  0.09502  0.85582  0.00569  1.0000
  C   C14       1.0  1.00000  0.97687  0.02313  1.0000
  C   C15       1.0  0.79716  0.12367  0.16341  1.0000
  C   C16       1.0  0.20284  0.83659  0.87634  1.0000
  C   C17       1.0  0.20693  0.42350  0.06685  1.0000
  C   C18       1.0  0.79307  0.93314  0.57650  1.0000
  C   C19       1.0  0.05710  0.37914  0.15048  1.0000
  C   C20       1.0  0.94290  0.84952  0.62086  1.0000
  C   C21       1.0  0.31304  0.27062  0.21940  1.0000
  C   C22       1.0  0.68696  0.78060  0.72938  1.0000
  C   C23       1.0  0.01622  0.21909  0.36493  1.0000
  C   C24       1.0  0.98378  0.63507  0.78091  1.0000
  C   C25       1.0  0.94284  0.30528  0.45690  1.0000
  C   C26       1.0  0.05716  0.54310  0.69472  1.0000
  C   C27       1.0  0.82512  0.24479  0.58270  1.0000
  C   C28       1.0  0.17488  0.41729  0.75521  1.0000
  C   C29       1.0  0.64719  0.45549  0.63915  1.0000
  C   C30       1.0  0.35281  0.36085  0.54451  1.0000
  C   C31       1.0  0.59011  0.49359  0.75070  1.0000
  C   C32       1.0  0.40990  0.24929  0.50641  1.0000
  C   C33       1.0  0.75011  0.29700  0.79268  1.0000
  C   C34       1.0  0.24989  0.20732  0.70299  1.0000
  Br  Br1       1.0  0.50000  0.05516  0.94485  1.0000
  Br  Br2       1.0  0.00001  0.62511  0.37488  1.0000
  N   N1        1.0  0.36599  0.35483  0.11098  1.0000
  N   N2        1.0  0.63401  0.88901  0.64517  1.0000
  N   N3        1.0  0.12697  0.28241  0.24585  1.0000
  N   N4        1.0  0.87304  0.75415  0.71759  1.0000
  N   N5        1.0  0.74764  0.33067  0.66749  1.0000
  N   N6        1.0  0.25236  0.33251  0.66932  1.0000
  N   N7        1.0  0.65642  0.39386  0.84591  1.0000
  N   N8        1.0  0.34358  0.15409  0.60614  1.0000
  O   O1        1.0  0.64106  0.53970  0.04252  1.0000
  O   O2        1.0  0.35893  0.95749  0.46031  1.0000
  O   O3        1.0  0.59113  0.45763  0.25517  1.0000
  O   O4        1.0  0.40886  0.74484  0.54237  1.0000
  O   O5        1.0  0.80270  0.21582  0.05954  1.0000
  O   O6        1.0  0.19730  0.94046  0.78418  1.0000
  O   O7        1.0  0.70921  0.13536  0.27258  1.0000
  O   O8        1.0  0.29078  0.72742  0.86464  1.0000
