data_image0
_chemical_formula_structural       Ni2H34C34Br2N8O10
_chemical_formula_sum              "Ni2 H34 C34 Br2 N8 O10"
_cell_length_a       9.59039
_cell_length_b       10.1528
_cell_length_c       11.1547
_cell_angle_alpha    107.946
_cell_angle_beta     106.536
_cell_angle_gamma    102.626

_space_group_name_H-M_alt    "P 1"
_space_group_IT_number       1

loop_
  _space_group_symop_operation_xyz
  'x, y, z'

loop_
  _atom_site_type_symbol
  _atom_site_label
  _atom_site_symmetry_multiplicity
  _atom_site_fract_x
  _atom_site_fract_y
  _atom_site_fract_z
  _atom_site_occupancy
  Ni  Ni1       1.0  0.50433  0.93830  0.70040  1.0000
  Ni  Ni2       1.0  0.49566  0.06170  0.29960  1.0000
  H   H1        1.0  0.58532  0.84959  0.49755  1.0000
  H   H2        1.0  0.41468  0.15041  0.50246  1.0000
  H   H3        1.0  0.62650  0.76942  0.60492  1.0000
  H   H4        1.0  0.37351  0.23058  0.39508  1.0000
  H   H5        1.0  0.52401  0.38723  0.67560  1.0000
  H   H6        1.0  0.47599  0.61276  0.32440  1.0000
  H   H7        1.0  0.26754  0.25041  0.90163  1.0000
  H   H8        1.0  0.73246  0.74959  0.09836  1.0000
  H   H9        1.0  0.35612  0.69004  0.90860  1.0000
  H   H10       1.0  0.64389  0.30997  0.09140  1.0000
  H   H11       1.0  0.86637  0.10538  0.77521  1.0000
  H   H12       1.0  0.13363  0.89462  0.22479  1.0000
  H   H13       1.0  0.08234  0.20161  0.04001  1.0000
  H   H14       1.0  0.91766  0.79839  0.96000  1.0000
  H   H15       1.0  0.63281  0.04415  0.03271  1.0000
  H   H16       1.0  0.36719  0.95585  0.96729  1.0000
  H   H17       1.0  0.04659  0.14660  0.24739  1.0000
  H   H18       1.0  0.95341  0.85340  0.75261  1.0000
  H   H19       1.0  0.85633  0.10128  0.24760  1.0000
  H   H20       1.0  0.14367  0.89872  0.75240  1.0000
  H   H21       1.0  0.86212  0.35658  0.30013  1.0000
  H   H22       1.0  0.13788  0.64342  0.69987  1.0000
  H   H23       1.0  0.02615  0.35122  0.41917  1.0000
  H   H24       1.0  0.97385  0.64878  0.58083  1.0000
  H   H25       1.0  0.18042  0.40617  0.27621  1.0000
  H   H26       1.0  0.81958  0.59383  0.72379  1.0000
  H   H27       1.0  0.01791  0.43285  0.17442  1.0000
  H   H28       1.0  0.98209  0.56715  0.82558  1.0000
  H   H29       1.0  0.94803  0.67029  0.30409  1.0000
  H   H30       1.0  0.05197  0.32971  0.69591  1.0000
  H   H31       1.0  0.15944  0.93466  0.50978  1.0000
  H   H32       1.0  0.84056  0.06534  0.49022  1.0000
  H   H33       1.0  0.36215  0.60277  0.48724  1.0000
  H   H34       1.0  0.63784  0.39723  0.51276  1.0000
  C   C1        1.0  0.44407  0.54912  0.78460  1.0000
  C   C2        1.0  0.55593  0.45088  0.21540  1.0000
  C   C3        1.0  0.45846  0.41034  0.73982  1.0000
  C   C4        1.0  0.54154  0.58966  0.26018  1.0000
  C   C5        1.0  0.39480  0.30331  0.78174  1.0000
  C   C6        1.0  0.60520  0.69669  0.21826  1.0000
  C   C7        1.0  0.31452  0.33414  0.86829  1.0000
  C   C8        1.0  0.68548  0.66586  0.13171  1.0000
  C   C9        1.0  0.30050  0.47302  0.91133  1.0000
  C   C10       1.0  0.69950  0.52698  0.08867  1.0000
  C   C11       1.0  0.36475  0.58090  0.87165  1.0000
  C   C12       1.0  0.63525  0.41911  0.12835  1.0000
  C   C13       1.0  0.51130  0.66545  0.74021  1.0000
  C   C14       1.0  0.48870  0.33455  0.25979  1.0000
  C   C15       1.0  0.42236  0.15996  0.74281  1.0000
  C   C16       1.0  0.57764  0.84004  0.25719  1.0000
  C   C17       1.0  0.85017  0.10792  0.86801  1.0000
  C   C18       1.0  0.14983  0.89208  0.13199  1.0000
  C   C19       1.0  0.95745  0.15585  0.99775  1.0000
  C   C20       1.0  0.04255  0.84415  0.00225  1.0000
  C   C21       1.0  0.72255  0.07544  0.99578  1.0000
  C   C22       1.0  0.27745  0.92456  0.00422  1.0000
  C   C23       1.0  0.93936  0.17321  0.22500  1.0000
  C   C24       1.0  0.06064  0.82679  0.77500  1.0000
  C   C25       1.0  0.97158  0.33475  0.31214  1.0000
  C   C26       1.0  0.02842  0.66525  0.68786  1.0000
  C   C27       1.0  0.07821  0.43847  0.27642  1.0000
  C   C28       1.0  0.92179  0.56153  0.72358  1.0000
  C   C29       1.0  0.06478  0.69704  0.37376  1.0000
  C   C30       1.0  0.93522  0.30295  0.62624  1.0000
  C   C31       1.0  0.17056  0.82669  0.47632  1.0000
  C   C32       1.0  0.82944  0.17332  0.52368  1.0000
  C   C33       1.0  0.28059  0.66047  0.46934  1.0000
  C   C34       1.0  0.71941  0.33953  0.53066  1.0000
  Br  Br1       1.0  0.19014  0.51958  0.02656  1.0000
  Br  Br2       1.0  0.80985  0.48041  0.97343  1.0000
  N   N1        1.0  0.70438  0.05740  0.86807  1.0000
  N   N2        1.0  0.29562  0.94260  0.13193  1.0000
  N   N3        1.0  0.87499  0.13525  0.07795  1.0000
  N   N4        1.0  0.12501  0.86475  0.92205  1.0000
  N   N5        1.0  0.13683  0.59271  0.37071  1.0000
  N   N6        1.0  0.86317  0.40728  0.62929  1.0000
  N   N7        1.0  0.30458  0.80245  0.53546  1.0000
  N   N8        1.0  0.69542  0.19755  0.46454  1.0000
  O   O1        1.0  0.47500  0.78127  0.77594  1.0000
  O   O2        1.0  0.52500  0.21873  0.22406  1.0000
  O   O3        1.0  0.59234  0.63985  0.66897  1.0000
  O   O4        1.0  0.40767  0.36014  0.33103  1.0000
  O   O5        1.0  0.48697  0.12897  0.65652  1.0000
  O   O6        1.0  0.51303  0.87103  0.34348  1.0000
  O   O7        1.0  0.38686  0.07195  0.79828  1.0000
  O   O8        1.0  0.61313  0.92805  0.20172  1.0000
  O   O9        1.0  0.63882  0.86548  0.59398  1.0000
  O   O10       1.0  0.36118  0.13452  0.40602  1.0000
