data_image0
_chemical_formula_structural       Cs4H20C56N16O4
_chemical_formula_sum              "Cs4 H20 C56 N16 O4"
_cell_length_a       8.36471
_cell_length_b       9.72375
_cell_length_c       18.4427
_cell_angle_alpha    90.0001
_cell_angle_beta     89.9999
_cell_angle_gamma    108.901

_space_group_name_H-M_alt    "P 1"
_space_group_IT_number       1

loop_
  _space_group_symop_operation_xyz
  'x, y, z'

loop_
  _atom_site_type_symbol
  _atom_site_label
  _atom_site_symmetry_multiplicity
  _atom_site_fract_x
  _atom_site_fract_y
  _atom_site_fract_z
  _atom_site_occupancy
  Cs  Cs1       1.0  0.36444  0.20992  0.16607  1.0000
  Cs  Cs2       1.0  0.13556  0.79008  0.66606  1.0000
  Cs  Cs3       1.0  0.63556  0.79008  0.83393  1.0000
  Cs  Cs4       1.0  0.86444  0.20992  0.33394  1.0000
  H   H1        1.0  0.69060  0.43511  0.97590  1.0000
  H   H2        1.0  0.80940  0.56490  0.47590  1.0000
  H   H3        1.0  0.30940  0.56490  0.02410  1.0000
  H   H4        1.0  0.19060  0.43510  0.52410  1.0000
  H   H5        1.0  0.90708  0.48170  0.87712  1.0000
  H   H6        1.0  0.59291  0.51830  0.37713  1.0000
  H   H7        1.0  0.09292  0.51830  0.12288  1.0000
  H   H8        1.0  0.40708  0.48170  0.62287  1.0000
  H   H9        1.0  0.15306  0.70902  0.87841  1.0000
  H   H10       1.0  0.34694  0.29098  0.37841  1.0000
  H   H11       1.0  0.84694  0.29098  0.12159  1.0000
  H   H12       1.0  0.65305  0.70901  0.62159  1.0000
  H   H13       1.0  0.18738  0.88805  0.97866  1.0000
  H   H14       1.0  0.31262  0.11195  0.47866  1.0000
  H   H15       1.0  0.81262  0.11195  0.02134  1.0000
  H   H16       1.0  0.68738  0.88804  0.52134  1.0000
  H   H17       1.0  0.96936  0.84490  0.07471  1.0000
  H   H18       1.0  0.53064  0.15511  0.57471  1.0000
  H   H19       1.0  0.03064  0.15511  0.92529  1.0000
  H   H20       1.0  0.46936  0.84489  0.42529  1.0000
  C   C1        1.0  0.69038  0.72408  0.14382  1.0000
  C   C2        1.0  0.80963  0.27592  0.64382  1.0000
  C   C3        1.0  0.30962  0.27592  0.85618  1.0000
  C   C4        1.0  0.19038  0.72408  0.35618  1.0000
  C   C5        1.0  0.68390  0.60789  0.08708  1.0000
  C   C6        1.0  0.81610  0.39211  0.58709  1.0000
  C   C7        1.0  0.31610  0.39211  0.91292  1.0000
  C   C8        1.0  0.18390  0.60789  0.41291  1.0000
  C   C9        1.0  0.81345  0.63881  0.02994  1.0000
  C   C10       1.0  0.68655  0.36120  0.52994  1.0000
  C   C11       1.0  0.18655  0.36120  0.97006  1.0000
  C   C12       1.0  0.31345  0.63880  0.47006  1.0000
  C   C13       1.0  0.79768  0.53509  0.97460  1.0000
  C   C14       1.0  0.70232  0.46491  0.47460  1.0000
  C   C15       1.0  0.20232  0.46491  0.02540  1.0000
  C   C16       1.0  0.29768  0.53509  0.52540  1.0000
  C   C17       1.0  0.91854  0.56139  0.92003  1.0000
  C   C18       1.0  0.58146  0.43861  0.42003  1.0000
  C   C19       1.0  0.08146  0.43861  0.07997  1.0000
  C   C20       1.0  0.41854  0.56139  0.57997  1.0000
  C   C21       1.0  0.05764  0.68956  0.92093  1.0000
  C   C22       1.0  0.44236  0.31044  0.42093  1.0000
  C   C23       1.0  0.94236  0.31044  0.07907  1.0000
  C   C24       1.0  0.55764  0.68956  0.57907  1.0000
  C   C25       1.0  0.07593  0.79139  0.97657  1.0000
  C   C26       1.0  0.42407  0.20862  0.47657  1.0000
  C   C27       1.0  0.92407  0.20862  0.02343  1.0000
  C   C28       1.0  0.57593  0.79138  0.52343  1.0000
  C   C29       1.0  0.95369  0.76681  0.03075  1.0000
  C   C30       1.0  0.54632  0.23319  0.53075  1.0000
  C   C31       1.0  0.04631  0.23319  0.96925  1.0000
  C   C32       1.0  0.45368  0.76681  0.46925  1.0000
  C   C33       1.0  0.74048  0.69860  0.21376  1.0000
  C   C34       1.0  0.75953  0.30140  0.71376  1.0000
  C   C35       1.0  0.25953  0.30140  0.78624  1.0000
  C   C36       1.0  0.24048  0.69860  0.28624  1.0000
  C   C37       1.0  0.72999  0.78234  0.27515  1.0000
  C   C38       1.0  0.77002  0.21766  0.77515  1.0000
  C   C39       1.0  0.27002  0.21767  0.72485  1.0000
  C   C40       1.0  0.22998  0.78233  0.22485  1.0000
  C   C41       1.0  0.79404  0.57700  0.22680  1.0000
  C   C42       1.0  0.70596  0.42300  0.72680  1.0000
  C   C43       1.0  0.20596  0.42301  0.77320  1.0000
  C   C44       1.0  0.29404  0.57700  0.27320  1.0000
  C   C45       1.0  0.63626  0.83978  0.12081  1.0000
  C   C46       1.0  0.86374  0.16021  0.62081  1.0000
  C   C47       1.0  0.36375  0.16022  0.87919  1.0000
  C   C48       1.0  0.13626  0.83978  0.37918  1.0000
  C   C49       1.0  0.64138  0.96092  0.16382  1.0000
  C   C50       1.0  0.85862  0.03907  0.66382  1.0000
  C   C51       1.0  0.35862  0.03907  0.83618  1.0000
  C   C52       1.0  0.14138  0.96093  0.33618  1.0000
  C   C53       1.0  0.57379  0.84070  0.04962  1.0000
  C   C54       1.0  0.92621  0.15930  0.54962  1.0000
  C   C55       1.0  0.42622  0.15930  0.95038  1.0000
  C   C56       1.0  0.07379  0.84070  0.45038  1.0000
  N   N1        1.0  0.71902  0.84932  0.32667  1.0000
  N   N2        1.0  0.78098  0.15067  0.82667  1.0000
  N   N3        1.0  0.28099  0.15068  0.67333  1.0000
  N   N4        1.0  0.21901  0.84932  0.17333  1.0000
  N   N5        1.0  0.83688  0.47538  0.23754  1.0000
  N   N6        1.0  0.66312  0.52461  0.73754  1.0000
  N   N7        1.0  0.16312  0.52461  0.76246  1.0000
  N   N8        1.0  0.33688  0.47538  0.26246  1.0000
  N   N9        1.0  0.52181  0.84129  0.99066  1.0000
  N   N10       1.0  0.97818  0.15872  0.49066  1.0000
  N   N11       1.0  0.47818  0.15871  0.00934  1.0000
  N   N12       1.0  0.02181  0.84129  0.50934  1.0000
  N   N13       1.0  0.64777  0.06573  0.19672  1.0000
  N   N14       1.0  0.85222  0.93427  0.69671  1.0000
  N   N15       1.0  0.35222  0.93427  0.80329  1.0000
  N   N16       1.0  0.14777  0.06573  0.30328  1.0000
  O   O1        1.0  0.56779  0.49144  0.09218  1.0000
  O   O2        1.0  0.93221  0.50856  0.59218  1.0000
  O   O3        1.0  0.43221  0.50856  0.90782  1.0000
  O   O4        1.0  0.06779  0.49144  0.40782  1.0000
