data_image0
_chemical_formula_structural       Li2H14C28N8O4
_chemical_formula_sum              "Li2 H14 C28 N8 O4"
_cell_length_a       8.60057
_cell_length_b       9.45283
_cell_length_c       9.58006
_cell_angle_alpha    64.8769
_cell_angle_beta     78.116
_cell_angle_gamma    67.4116

_space_group_name_H-M_alt    "P 1"
_space_group_IT_number       1

loop_
  _space_group_symop_operation_xyz
  'x, y, z'

loop_
  _atom_site_type_symbol
  _atom_site_label
  _atom_site_symmetry_multiplicity
  _atom_site_fract_x
  _atom_site_fract_y
  _atom_site_fract_z
  _atom_site_occupancy
  Li  Li1       1.0  0.62099  0.28065  0.28784  1.0000
  Li  Li2       1.0  0.37901  0.71935  0.71216  1.0000
  H   H1        1.0  0.04996  0.15662  0.18679  1.0000
  H   H2        1.0  0.95004  0.84338  0.81321  1.0000
  H   H3        1.0  0.04603  0.92546  0.12992  1.0000
  H   H4        1.0  0.95397  0.07454  0.87007  1.0000
  H   H5        1.0  0.31495  0.70162  0.11526  1.0000
  H   H6        1.0  0.68505  0.29838  0.88474  1.0000
  H   H7        1.0  0.58629  0.70453  0.16415  1.0000
  H   H8        1.0  0.41371  0.29546  0.83585  1.0000
  H   H9        1.0  0.59214  0.93719  0.21703  1.0000
  H   H10       1.0  0.40786  0.06280  0.78298  1.0000
  H   H11       1.0  0.38824  0.43643  0.45106  1.0000
  H   H12       1.0  0.61176  0.56357  0.54894  1.0000
  H   H13       1.0  0.55767  0.33358  0.53545  1.0000
  H   H14       1.0  0.44233  0.66642  0.46455  1.0000
  C   C1        1.0  0.32892  0.20094  0.23056  1.0000
  C   C2        1.0  0.67107  0.79906  0.76944  1.0000
  C   C3        1.0  0.32164  0.06256  0.20385  1.0000
  C   C4        1.0  0.67836  0.93744  0.79615  1.0000
  C   C5        1.0  0.16739  0.05848  0.18026  1.0000
  C   C6        1.0  0.83261  0.94152  0.81974  1.0000
  C   C7        1.0  0.16520  0.92946  0.14744  1.0000
  C   C8        1.0  0.83480  0.07054  0.85256  1.0000
  C   C9        1.0  0.31604  0.80305  0.14077  1.0000
  C   C10       1.0  0.68396  0.19695  0.85922  1.0000
  C   C11       1.0  0.46945  0.80448  0.16747  1.0000
  C   C12       1.0  0.53054  0.19552  0.83254  1.0000
  C   C13       1.0  0.47314  0.93445  0.19765  1.0000
  C   C14       1.0  0.52686  0.06554  0.80235  1.0000
  C   C15       1.0  0.16751  0.31863  0.27458  1.0000
  C   C16       1.0  0.83249  0.68137  0.72541  1.0000
  C   C17       1.0  0.08893  0.25380  0.42000  1.0000
  C   C18       1.0  0.91106  0.74620  0.57999  1.0000
  C   C19       1.0  0.93955  0.34759  0.47768  1.0000
  C   C20       1.0  0.06045  0.65241  0.52232  1.0000
  C   C21       1.0  0.15738  0.08604  0.51866  1.0000
  C   C22       1.0  0.84262  0.91395  0.48134  1.0000
  C   C23       1.0  0.11656  0.48323  0.16747  1.0000
  C   C24       1.0  0.88344  0.51678  0.83253  1.0000
  C   C25       1.0  0.98102  0.61534  0.19330  1.0000
  C   C26       1.0  0.01898  0.38466  0.80670  1.0000
  C   C27       1.0  0.20208  0.53244  0.02200  1.0000
  C   C28       1.0  0.79793  0.46757  0.97800  1.0000
  N   N1        1.0  0.21253  0.94696  0.60043  1.0000
  N   N2        1.0  0.78746  0.05304  0.39956  1.0000
  N   N3        1.0  0.81508  0.42151  0.52798  1.0000
  N   N4        1.0  0.18493  0.57849  0.47203  1.0000
  N   N5        1.0  0.87356  0.73092  0.20812  1.0000
  N   N6        1.0  0.12644  0.26908  0.79189  1.0000
  N   N7        1.0  0.26633  0.58368  0.89967  1.0000
  N   N8        1.0  0.73368  0.41633  0.10033  1.0000
  O   O1        1.0  0.46178  0.22834  0.21820  1.0000
  O   O2        1.0  0.53822  0.77167  0.78180  1.0000
  O   O3        1.0  0.50595  0.36486  0.44073  1.0000
  O   O4        1.0  0.49405  0.63515  0.55928  1.0000
