data_image0
_chemical_formula_structural       Rb4H20C56N16O4
_chemical_formula_sum              "Rb4 H20 C56 N16 O4"
_cell_length_a       8.50871
_cell_length_b       9.3815
_cell_length_c       17.7417
_cell_angle_alpha    89.9999
_cell_angle_beta     90.0001
_cell_angle_gamma    108.059

_space_group_name_H-M_alt    "P 1"
_space_group_IT_number       1

loop_
  _space_group_symop_operation_xyz
  'x, y, z'

loop_
  _atom_site_type_symbol
  _atom_site_label
  _atom_site_symmetry_multiplicity
  _atom_site_fract_x
  _atom_site_fract_y
  _atom_site_fract_z
  _atom_site_occupancy
  Rb  Rb1       1.0  0.12916  0.77907  0.83474  1.0000
  Rb  Rb2       1.0  0.37084  0.22093  0.33474  1.0000
  Rb  Rb3       1.0  0.87084  0.22093  0.16526  1.0000
  Rb  Rb4       1.0  0.62916  0.77907  0.66527  1.0000
  H   H1        1.0  0.19116  0.43283  0.97323  1.0000
  H   H2        1.0  0.30885  0.56717  0.47323  1.0000
  H   H3        1.0  0.80885  0.56717  0.02677  1.0000
  H   H4        1.0  0.69115  0.43283  0.52677  1.0000
  H   H5        1.0  0.40534  0.47873  0.87158  1.0000
  H   H6        1.0  0.09467  0.52128  0.37159  1.0000
  H   H7        1.0  0.59466  0.52127  0.12841  1.0000
  H   H8        1.0  0.90534  0.47873  0.62842  1.0000
  H   H9        1.0  0.64748  0.70917  0.87466  1.0000
  H   H10       1.0  0.85253  0.29084  0.37466  1.0000
  H   H11       1.0  0.35252  0.29083  0.12534  1.0000
  H   H12       1.0  0.14748  0.70917  0.62534  1.0000
  H   H13       1.0  0.67994  0.89305  0.97960  1.0000
  H   H14       1.0  0.82006  0.10695  0.47959  1.0000
  H   H15       1.0  0.32006  0.10694  0.02040  1.0000
  H   H16       1.0  0.17994  0.89306  0.52040  1.0000
  H   H17       1.0  0.46497  0.85184  0.07785  1.0000
  H   H18       1.0  0.03503  0.14816  0.57785  1.0000
  H   H19       1.0  0.53503  0.14816  0.92215  1.0000
  H   H20       1.0  0.96497  0.85184  0.42215  1.0000
  C   C1        1.0  0.18495  0.61087  0.08969  1.0000
  C   C2        1.0  0.31505  0.38913  0.58969  1.0000
  C   C3        1.0  0.81505  0.38913  0.91031  1.0000
  C   C4        1.0  0.68495  0.61087  0.41031  1.0000
  C   C5        1.0  0.19167  0.73213  0.14822  1.0000
  C   C6        1.0  0.30833  0.26786  0.64822  1.0000
  C   C7        1.0  0.80833  0.26786  0.85178  1.0000
  C   C8        1.0  0.69167  0.73214  0.35178  1.0000
  C   C9        1.0  0.24685  0.70896  0.22033  1.0000
  C   C10       1.0  0.25315  0.29104  0.72033  1.0000
  C   C11       1.0  0.75315  0.29104  0.77967  1.0000
  C   C12       1.0  0.74685  0.70896  0.27967  1.0000
  C   C13       1.0  0.13356  0.84951  0.12402  1.0000
  C   C14       1.0  0.36644  0.15049  0.62402  1.0000
  C   C15       1.0  0.86645  0.15049  0.87598  1.0000
  C   C16       1.0  0.63356  0.84951  0.37598  1.0000
  C   C17       1.0  0.07265  0.84666  0.04967  1.0000
  C   C18       1.0  0.42735  0.15334  0.54967  1.0000
  C   C19       1.0  0.92735  0.15334  0.95033  1.0000
  C   C20       1.0  0.57265  0.84666  0.45033  1.0000
  C   C21       1.0  0.13549  0.97464  0.16849  1.0000
  C   C22       1.0  0.36450  0.02536  0.66849  1.0000
  C   C23       1.0  0.86451  0.02537  0.83151  1.0000
  C   C24       1.0  0.63550  0.97464  0.33151  1.0000
  C   C25       1.0  0.30426  0.58488  0.23317  1.0000
  C   C26       1.0  0.19574  0.41511  0.73317  1.0000
  C   C27       1.0  0.69574  0.41511  0.76683  1.0000
  C   C28       1.0  0.80426  0.58489  0.26683  1.0000
  C   C29       1.0  0.23895  0.79775  0.28367  1.0000
  C   C30       1.0  0.26105  0.20225  0.78367  1.0000
  C   C31       1.0  0.76106  0.20225  0.71633  1.0000
  C   C32       1.0  0.73894  0.79775  0.21633  1.0000
  C   C33       1.0  0.31201  0.64097  0.03054  1.0000
  C   C34       1.0  0.18799  0.35903  0.53054  1.0000
  C   C35       1.0  0.68798  0.35902  0.96946  1.0000
  C   C36       1.0  0.81202  0.64097  0.46946  1.0000
  C   C37       1.0  0.29665  0.53450  0.97262  1.0000
  C   C38       1.0  0.20335  0.46550  0.47262  1.0000
  C   C39       1.0  0.70334  0.46549  0.02738  1.0000
  C   C40       1.0  0.79666  0.53451  0.52738  1.0000
  C   C41       1.0  0.41605  0.56040  0.91645  1.0000
  C   C42       1.0  0.08395  0.43960  0.41645  1.0000
  C   C43       1.0  0.58394  0.43959  0.08355  1.0000
  C   C44       1.0  0.91605  0.56041  0.58355  1.0000
  C   C45       1.0  0.55299  0.69050  0.91830  1.0000
  C   C46       1.0  0.94701  0.30950  0.41830  1.0000
  C   C47       1.0  0.44701  0.30950  0.08170  1.0000
  C   C48       1.0  0.05299  0.69050  0.58171  1.0000
  C   C49       1.0  0.57049  0.79494  0.97645  1.0000
  C   C50       1.0  0.92951  0.20506  0.47645  1.0000
  C   C51       1.0  0.42951  0.20506  0.02355  1.0000
  C   C52       1.0  0.07049  0.79494  0.52355  1.0000
  C   C53       1.0  0.44972  0.77114  0.03216  1.0000
  C   C54       1.0  0.05028  0.22886  0.53216  1.0000
  C   C55       1.0  0.55027  0.22886  0.96783  1.0000
  C   C56       1.0  0.94972  0.77114  0.46784  1.0000
  N   N1        1.0  0.35077  0.48129  0.24332  1.0000
  N   N2        1.0  0.14923  0.51870  0.74332  1.0000
  N   N3        1.0  0.64922  0.51870  0.75668  1.0000
  N   N4        1.0  0.85078  0.48129  0.25668  1.0000
  N   N5        1.0  0.13963  0.08160  0.20364  1.0000
  N   N6        1.0  0.36036  0.91840  0.70364  1.0000
  N   N7        1.0  0.86037  0.91840  0.79636  1.0000
  N   N8        1.0  0.63963  0.08161  0.29636  1.0000
  N   N9        1.0  0.23045  0.87034  0.33637  1.0000
  N   N10       1.0  0.26955  0.12966  0.83637  1.0000
  N   N11       1.0  0.76955  0.12966  0.66363  1.0000
  N   N12       1.0  0.73045  0.87034  0.16363  1.0000
  N   N13       1.0  0.02334  0.84121  0.98776  1.0000
  N   N14       1.0  0.47666  0.15879  0.48776  1.0000
  N   N15       1.0  0.97665  0.15879  0.01224  1.0000
  N   N16       1.0  0.52334  0.84120  0.51224  1.0000
  O   O1        1.0  0.07105  0.49205  0.09505  1.0000
  O   O2        1.0  0.42895  0.50795  0.59506  1.0000
  O   O3        1.0  0.92896  0.50794  0.90494  1.0000
  O   O4        1.0  0.57105  0.49205  0.40494  1.0000
