data_image0
_chemical_formula_structural       Cu2H16C24N8Cl4
_chemical_formula_sum              "Cu2 H16 C24 N8 Cl4"
_cell_length_a       3.70684
_cell_length_b       12.6907
_cell_length_c       13.347
_cell_angle_alpha    90
_cell_angle_beta     89.9987
_cell_angle_gamma    94.4662

_space_group_name_H-M_alt    "P 1"
_space_group_IT_number       1

loop_
  _space_group_symop_operation_xyz
  'x, y, z'

loop_
  _atom_site_type_symbol
  _atom_site_label
  _atom_site_symmetry_multiplicity
  _atom_site_fract_x
  _atom_site_fract_y
  _atom_site_fract_z
  _atom_site_occupancy
  Cu  Cu1       1.0  0.50000  0.50000  0.50000  1.0000
  Cu  Cu2       1.0  0.50000  1.00000  1.00000  1.0000
  H   H1        1.0  0.72628  0.59112  0.31050  1.0000
  H   H2        1.0  0.27375  0.90887  0.81049  1.0000
  H   H3        1.0  0.27374  0.40888  0.68951  1.0000
  H   H4        1.0  0.72624  0.09112  0.18951  1.0000
  H   H5        1.0  0.54437  0.34581  0.08486  1.0000
  H   H6        1.0  0.45564  0.15418  0.58485  1.0000
  H   H7        1.0  0.45562  0.65420  0.91515  1.0000
  H   H8        1.0  0.54434  0.84581  0.41515  1.0000
  H   H9        1.0  0.27600  0.22923  0.22000  1.0000
  H   H10       1.0  0.72399  0.27077  0.72000  1.0000
  H   H11       1.0  0.72400  0.77078  0.78000  1.0000
  H   H12       1.0  0.27599  0.72923  0.28000  1.0000
  H   H13       1.0  0.26637  0.29781  0.39766  1.0000
  H   H14       1.0  0.73363  0.20218  0.89766  1.0000
  H   H15       1.0  0.73363  0.70219  0.60234  1.0000
  H   H16       1.0  0.26637  0.79781  0.10234  1.0000
  C   C1        1.0  0.63023  0.51167  0.28695  1.0000
  C   C2        1.0  0.36978  0.98832  0.78694  1.0000
  C   C3        1.0  0.36978  0.48833  0.71305  1.0000
  C   C4        1.0  0.63022  0.01167  0.21306  1.0000
  C   C5        1.0  0.65855  0.47795  0.18736  1.0000
  C   C6        1.0  0.34148  0.02205  0.68735  1.0000
  C   C7        1.0  0.34145  0.52205  0.81264  1.0000
  C   C8        1.0  0.65851  0.97795  0.31264  1.0000
  C   C9        1.0  0.52939  0.37444  0.16166  1.0000
  C   C10       1.0  0.47062  0.12556  0.66165  1.0000
  C   C11       1.0  0.47061  0.62557  0.83834  1.0000
  C   C12       1.0  0.52937  0.87444  0.33835  1.0000
  C   C13       1.0  0.38249  0.30947  0.23774  1.0000
  C   C14       1.0  0.61753  0.19053  0.73774  1.0000
  C   C15       1.0  0.61751  0.69054  0.76226  1.0000
  C   C16       1.0  0.38248  0.80947  0.26226  1.0000
  C   C17       1.0  0.37321  0.34693  0.33578  1.0000
  C   C18       1.0  0.62679  0.15307  0.83577  1.0000
  C   C19       1.0  0.62679  0.65308  0.66422  1.0000
  C   C20       1.0  0.37322  0.84693  0.16423  1.0000
  C   C21       1.0  0.82680  0.55069  0.11717  1.0000
  C   C22       1.0  0.17324  0.94931  0.61716  1.0000
  C   C23       1.0  0.17323  0.44932  0.88283  1.0000
  C   C24       1.0  0.82673  0.05069  0.38283  1.0000
  N   N1        1.0  0.49396  0.44693  0.35882  1.0000
  N   N2        1.0  0.50607  0.05308  0.85882  1.0000
  N   N3        1.0  0.50605  0.55308  0.64118  1.0000
  N   N4        1.0  0.49394  0.94692  0.14118  1.0000
  N   N5        1.0  0.97714  0.61216  0.06356  1.0000
  N   N6        1.0  0.02289  0.88783  0.56355  1.0000
  N   N7        1.0  0.02288  0.38784  0.93645  1.0000
  N   N8        1.0  0.97707  0.11216  0.43645  1.0000
  Cl  Cl1       1.0  0.15189  0.63567  0.45575  1.0000
  Cl  Cl2       1.0  0.84812  0.86433  0.95574  1.0000
  Cl  Cl3       1.0  0.84813  0.36434  0.54426  1.0000
  Cl  Cl4       1.0  0.15188  0.13566  0.04426  1.0000
