data_image0
_chemical_formula_structural       Cd2H26C24N10Cl4
_chemical_formula_sum              "Cd2 H26 C24 N10 Cl4"
_cell_length_a       7.60946
_cell_length_b       9.58415
_cell_length_c       10.2289
_cell_angle_alpha    75.3725
_cell_angle_beta     82.6725
_cell_angle_gamma    88.8822

_space_group_name_H-M_alt    "P 1"
_space_group_IT_number       1

loop_
  _space_group_symop_operation_xyz
  'x, y, z'

loop_
  _atom_site_type_symbol
  _atom_site_label
  _atom_site_symmetry_multiplicity
  _atom_site_fract_x
  _atom_site_fract_y
  _atom_site_fract_z
  _atom_site_occupancy
  Cd  Cd1       1.0  0.36758  0.60064  0.34830  1.0000
  Cd  Cd2       1.0  0.63242  0.39936  0.65170  1.0000
  H   H1        1.0  0.93447  0.23490  0.31479  1.0000
  H   H2        1.0  0.06554  0.76509  0.68521  1.0000
  H   H3        1.0  0.65232  0.09831  0.39898  1.0000
  H   H4        1.0  0.34769  0.90168  0.60102  1.0000
  H   H5        1.0  0.63769  0.83219  0.44255  1.0000
  H   H6        1.0  0.36232  0.16780  0.55744  1.0000
  H   H7        1.0  0.91201  0.68950  0.41131  1.0000
  H   H8        1.0  0.08801  0.31050  0.58868  1.0000
  H   H9        1.0  0.26169  0.28813  0.26820  1.0000
  H   H10       1.0  0.73830  0.71187  0.73181  1.0000
  H   H11       1.0  0.47350  0.20636  0.24987  1.0000
  H   H12       1.0  0.52649  0.79365  0.75013  1.0000
  H   H13       1.0  0.07257  0.30858  0.05669  1.0000
  H   H14       1.0  0.92742  0.69143  0.94331  1.0000
  H   H15       1.0  0.20031  0.39220  0.78197  1.0000
  H   H16       1.0  0.79968  0.60781  0.21803  1.0000
  H   H17       1.0  0.70224  0.28519  0.10344  1.0000
  H   H18       1.0  0.29775  0.71480  0.89656  1.0000
  H   H19       1.0  0.77332  0.30888  0.92849  1.0000
  H   H20       1.0  0.22667  0.69111  0.07151  1.0000
  H   H21       1.0  0.70765  0.04304  0.95358  1.0000
  H   H22       1.0  0.29233  0.95696  0.04643  1.0000
  H   H23       1.0  0.64615  0.01895  0.13056  1.0000
  H   H24       1.0  0.35383  0.98105  0.86945  1.0000
  H   H25       1.0  0.86772  0.06853  0.05820  1.0000
  H   H26       1.0  0.13226  0.93146  0.94180  1.0000
  C   C1        1.0  0.07481  0.88422  0.33931  1.0000
  C   C2        1.0  0.92519  0.11577  0.66068  1.0000
  C   C3        1.0  0.08030  0.03643  0.31051  1.0000
  C   C4        1.0  0.91972  0.96356  0.68948  1.0000
  C   C5        1.0  0.92917  0.11812  0.33055  1.0000
  C   C6        1.0  0.07084  0.88188  0.66944  1.0000
  C   C7        1.0  0.77246  0.03972  0.37806  1.0000
  C   C8        1.0  0.22754  0.96027  0.62194  1.0000
  C   C9        1.0  0.76477  0.88754  0.40466  1.0000
  C   C10       1.0  0.23523  0.11246  0.59534  1.0000
  C   C11       1.0  0.91486  0.80679  0.38704  1.0000
  C   C12       1.0  0.08515  0.19322  0.61295  1.0000
  C   C13       1.0  0.33997  0.21225  0.22045  1.0000
  C   C14       1.0  0.66003  0.78776  0.77956  1.0000
  C   C15       1.0  0.20509  0.30795  0.00382  1.0000
  C   C16       1.0  0.79491  0.69206  0.99618  1.0000
  C   C17       1.0  0.27060  0.34837  0.86877  1.0000
  C   C18       1.0  0.72939  0.65164  0.13124  1.0000
  C   C19       1.0  0.49923  0.27872  0.98018  1.0000
  C   C20       1.0  0.50076  0.72128  0.01982  1.0000
  C   C21       1.0  0.68276  0.24504  0.01430  1.0000
  C   C22       1.0  0.31724  0.75496  0.98571  1.0000
  C   C23       1.0  0.72842  0.08422  0.04100  1.0000
  C   C24       1.0  0.27156  0.91577  0.95901  1.0000
  N   N1        1.0  0.24663  0.83876  0.31704  1.0000
  N   N2        1.0  0.75339  0.16124  0.68296  1.0000
  N   N3        1.0  0.35412  0.95021  0.27656  1.0000
  N   N4        1.0  0.64589  0.04979  0.72344  1.0000
  N   N5        1.0  0.25667  0.07080  0.27128  1.0000
  N   N6        1.0  0.74334  0.92920  0.72872  1.0000
  N   N7        1.0  0.34983  0.26372  0.07339  1.0000
  N   N8        1.0  0.65016  0.73629  0.92661  1.0000
  N   N9        1.0  0.45242  0.33022  0.85543  1.0000
  N   N10       1.0  0.54757  0.66978  0.14457  1.0000
  Cl  Cl1       1.0  0.09655  0.48830  0.30630  1.0000
  Cl  Cl2       1.0  0.90345  0.51170  0.69370  1.0000
  Cl  Cl3       1.0  0.41409  0.62357  0.58713  1.0000
  Cl  Cl4       1.0  0.58592  0.37643  0.41287  1.0000
