data_image0
_chemical_formula_structural       Ag4H20C12S4I4N4
_chemical_formula_sum              "Ag4 H20 C12 S4 I4 N4"
_cell_length_a       8.09484
_cell_length_b       9.35655
_cell_length_c       9.57741
_cell_angle_alpha    104.258
_cell_angle_beta     106.58
_cell_angle_gamma    103.556

_space_group_name_H-M_alt    "P 1"
_space_group_IT_number       1

loop_
  _space_group_symop_operation_xyz
  'x, y, z'

loop_
  _atom_site_type_symbol
  _atom_site_label
  _atom_site_symmetry_multiplicity
  _atom_site_fract_x
  _atom_site_fract_y
  _atom_site_fract_z
  _atom_site_occupancy
  Ag  Ag1       1.0  0.60131  0.93422  0.09589  1.0000
  Ag  Ag2       1.0  0.39868  0.06578  0.90411  1.0000
  Ag  Ag3       1.0  0.16388  0.06339  0.14684  1.0000
  Ag  Ag4       1.0  0.83612  0.93661  0.85317  1.0000
  H   H1        1.0  0.78750  0.99335  0.48597  1.0000
  H   H2        1.0  0.21248  0.00664  0.51403  1.0000
  H   H3        1.0  0.99327  0.15663  0.55851  1.0000
  H   H4        1.0  0.00672  0.84335  0.44149  1.0000
  H   H5        1.0  0.85285  0.08455  0.35735  1.0000
  H   H6        1.0  0.14713  0.91544  0.64265  1.0000
  H   H7        1.0  0.77608  0.32488  0.81438  1.0000
  H   H8        1.0  0.22392  0.67512  0.18562  1.0000
  H   H9        1.0  0.82231  0.52067  0.81516  1.0000
  H   H10       1.0  0.17769  0.47932  0.18484  1.0000
  H   H11       1.0  0.85986  0.45616  0.56719  1.0000
  H   H12       1.0  0.14015  0.54384  0.43281  1.0000
  H   H13       1.0  0.99484  0.37362  0.68513  1.0000
  H   H14       1.0  0.00515  0.62637  0.31486  1.0000
  H   H15       1.0  0.48290  0.56126  0.73120  1.0000
  H   H16       1.0  0.51712  0.43875  0.26881  1.0000
  H   H17       1.0  0.54787  0.46652  0.86829  1.0000
  H   H18       1.0  0.45214  0.53347  0.13171  1.0000
  H   H19       1.0  0.33393  0.37581  0.70736  1.0000
  H   H20       1.0  0.66607  0.62419  0.29264  1.0000
  C   C1        1.0  0.57419  0.17296  0.44071  1.0000
  C   C2        1.0  0.42582  0.82704  0.55929  1.0000
  C   C3        1.0  0.48087  0.27918  0.50787  1.0000
  C   C4        1.0  0.51915  0.72084  0.49215  1.0000
  C   C5        1.0  0.85275  0.10548  0.47582  1.0000
  C   C6        1.0  0.14723  0.89451  0.52418  1.0000
  C   C7        1.0  0.76172  0.39765  0.73973  1.0000
  C   C8        1.0  0.23829  0.60235  0.26028  1.0000
  C   C9        1.0  0.85527  0.36828  0.62545  1.0000
  C   C10       1.0  0.14473  0.63172  0.37455  1.0000
  C   C11       1.0  0.47712  0.44743  0.74582  1.0000
  C   C12       1.0  0.52289  0.55258  0.25419  1.0000
  S   S1        1.0  0.45080  0.00243  0.29609  1.0000
  S   S2        1.0  0.54919  0.99757  0.70391  1.0000
  S   S3        1.0  0.27054  0.27674  0.40966  1.0000
  S   S4        1.0  0.72947  0.72327  0.59034  1.0000
  I   I1        1.0  0.86493  0.79373  0.08813  1.0000
  I   I2        1.0  0.13506  0.20628  0.91187  1.0000
  I   I3        1.0  0.24764  0.73614  0.87847  1.0000
  I   I4        1.0  0.75236  0.26386  0.12154  1.0000
  N   N1        1.0  0.56801  0.36829  0.65713  1.0000
  N   N2        1.0  0.43198  0.63170  0.34285  1.0000
  N   N3        1.0  0.75456  0.21253  0.51025  1.0000
  N   N4        1.0  0.24543  0.78747  0.48975  1.0000
