data_image0
_chemical_formula_structural       Co2H24C28N8O4
_chemical_formula_sum              "Co2 H24 C28 N8 O4"
_cell_length_a       4.69497
_cell_length_b       8.45762
_cell_length_c       18.5334
_cell_angle_alpha    97.1545
_cell_angle_beta     90.1074
_cell_angle_gamma    106.054

_space_group_name_H-M_alt    "P 1"
_space_group_IT_number       1

loop_
  _space_group_symop_operation_xyz
  'x, y, z'

loop_
  _atom_site_type_symbol
  _atom_site_label
  _atom_site_symmetry_multiplicity
  _atom_site_fract_x
  _atom_site_fract_y
  _atom_site_fract_z
  _atom_site_occupancy
  Co  Co1       1.0  0.95664  0.00033  0.74991  1.0000
  Co  Co2       1.0  0.04338  0.99967  0.25009  1.0000
  H   H1        1.0  0.50611  0.67207  0.74230  1.0000
  H   H2        1.0  0.83094  0.32830  0.75767  1.0000
  H   H3        1.0  0.49390  0.32794  0.25770  1.0000
  H   H4        1.0  0.16905  0.67169  0.24233  1.0000
  H   H5        1.0  0.09197  0.50120  0.65604  1.0000
  H   H6        1.0  0.58758  0.49846  0.84407  1.0000
  H   H7        1.0  0.90802  0.49880  0.34397  1.0000
  H   H8        1.0  0.41240  0.50153  0.15592  1.0000
  H   H9        1.0  0.37762  0.86457  0.50844  1.0000
  H   H10       1.0  0.51669  0.13493  0.99145  1.0000
  H   H11       1.0  0.62234  0.13543  0.49157  1.0000
  H   H12       1.0  0.48337  0.86507  0.00856  1.0000
  H   H13       1.0  0.77163  0.02580  0.60239  1.0000
  H   H14       1.0  0.74915  0.97437  0.89737  1.0000
  H   H15       1.0  0.22835  0.97421  0.39761  1.0000
  H   H16       1.0  0.25090  0.02563  0.10263  1.0000
  H   H17       1.0  0.90855  0.65300  0.48321  1.0000
  H   H18       1.0  0.25839  0.34638  0.01707  1.0000
  H   H19       1.0  0.09143  0.34699  0.51679  1.0000
  H   H20       1.0  0.74164  0.65362  0.98293  1.0000
  H   H21       1.0  0.75119  0.52345  0.55006  1.0000
  H   H22       1.0  0.22636  0.47486  0.95002  1.0000
  H   H23       1.0  0.24879  0.47655  0.44995  1.0000
  H   H24       1.0  0.77366  0.52513  0.04998  1.0000
  C   C1        1.0  0.46597  0.71114  0.69026  1.0000
  C   C2        1.0  0.75344  0.28912  0.80973  1.0000
  C   C3        1.0  0.53402  0.28886  0.30974  1.0000
  C   C4        1.0  0.24656  0.71087  0.19026  1.0000
  C   C5        1.0  0.23850  0.61679  0.64192  1.0000
  C   C6        1.0  0.62045  0.38319  0.85814  1.0000
  C   C7        1.0  0.76148  0.38322  0.35808  1.0000
  C   C8        1.0  0.37955  0.61680  0.14186  1.0000
  C   C9        1.0  0.19620  0.67178  0.57549  1.0000
  C   C10       1.0  0.52541  0.32802  0.92461  1.0000
  C   C11       1.0  0.80379  0.32821  0.42451  1.0000
  C   C12       1.0  0.47461  0.67197  0.07539  1.0000
  C   C13       1.0  0.39525  0.81979  0.56043  1.0000
  C   C14       1.0  0.57799  0.18004  0.93951  1.0000
  C   C15       1.0  0.60474  0.18021  0.43957  1.0000
  C   C16       1.0  0.42205  0.81995  0.06049  1.0000
  C   C17       1.0  0.61589  0.90858  0.61150  1.0000
  C   C18       1.0  0.70937  0.09147  0.88833  1.0000
  C   C19       1.0  0.38408  0.09142  0.38849  1.0000
  C   C20       1.0  0.29068  0.90853  0.11168  1.0000
  C   C21       1.0  0.95490  0.57320  0.52151  1.0000
  C   C22       1.0  0.38242  0.42624  0.97861  1.0000
  C   C23       1.0  0.04508  0.42679  0.47849  1.0000
  C   C24       1.0  0.61761  0.57375  0.02139  1.0000
  C   C25       1.0  0.16870  0.77520  0.84264  1.0000
  C   C26       1.0  0.39241  0.22422  0.65699  1.0000
  C   C27       1.0  0.83130  0.22481  0.15736  1.0000
  C   C28       1.0  0.60755  0.77580  0.34300  1.0000
  N   N1        1.0  0.64972  0.85684  0.67620  1.0000
  N   N2        1.0  0.79325  0.14355  0.82365  1.0000
  N   N3        1.0  0.35028  0.14316  0.32379  1.0000
  N   N4        1.0  0.20678  0.85645  0.17635  1.0000
  N   N5        1.0  0.05419  0.84911  0.80596  1.0000
  N   N6        1.0  0.20372  0.15128  0.69370  1.0000
  N   N7        1.0  0.94584  0.15088  0.19404  1.0000
  N   N8        1.0  0.79627  0.84871  0.30630  1.0000
  O   O1        1.0  0.28295  0.69867  0.87917  1.0000
  O   O2        1.0  0.58309  0.29960  0.62030  1.0000
  O   O3        1.0  0.71705  0.30132  0.12083  1.0000
  O   O4        1.0  0.41680  0.70044  0.37969  1.0000
