data_image0
_chemical_formula_structural       Mg2H24C28O12F4
_chemical_formula_sum              "Mg2 H24 C28 O12 F4"
_cell_length_a       6.56919
_cell_length_b       7.28458
_cell_length_c       15.9437
_cell_angle_alpha    109.484
_cell_angle_beta     90.0009
_cell_angle_gamma    89.9995

_space_group_name_H-M_alt    "P 1"
_space_group_IT_number       1

loop_
  _space_group_symop_operation_xyz
  'x, y, z'

loop_
  _atom_site_type_symbol
  _atom_site_label
  _atom_site_symmetry_multiplicity
  _atom_site_fract_x
  _atom_site_fract_y
  _atom_site_fract_z
  _atom_site_occupancy
  Mg  Mg1       1.0  0.99999  0.50000  0.00000  1.0000
  Mg  Mg2       1.0  0.50000  0.99999  1.00000  1.0000
  H   H1        1.0  0.92917  0.14866  0.73114  1.0000
  H   H2        1.0  0.42920  0.35136  0.26885  1.0000
  H   H3        1.0  0.07083  0.85135  0.26886  1.0000
  H   H4        1.0  0.57082  0.64866  0.73114  1.0000
  H   H5        1.0  0.82800  0.98283  0.57118  1.0000
  H   H6        1.0  0.32801  0.51719  0.42882  1.0000
  H   H7        1.0  0.17201  0.01718  0.42882  1.0000
  H   H8        1.0  0.67201  0.48283  0.57118  1.0000
  H   H9        1.0  0.23427  0.86801  0.65617  1.0000
  H   H10       1.0  0.73423  0.63198  0.34382  1.0000
  H   H11       1.0  0.76573  0.13198  0.34382  1.0000
  H   H12       1.0  0.26576  0.36800  0.65618  1.0000
  H   H13       1.0  0.33474  0.03108  0.81532  1.0000
  H   H14       1.0  0.83471  0.46890  0.18466  1.0000
  H   H15       1.0  0.66526  0.96892  0.18467  1.0000
  H   H16       1.0  0.16527  0.53108  0.81533  1.0000
  H   H17       1.0  0.35453  0.58835  0.97169  1.0000
  H   H18       1.0  0.85454  0.91165  0.02831  1.0000
  H   H19       1.0  0.64545  0.41165  0.02831  1.0000
  H   H20       1.0  0.14546  0.08834  0.97169  1.0000
  H   H21       1.0  0.37215  0.35775  0.93257  1.0000
  H   H22       1.0  0.87215  0.14224  0.06743  1.0000
  H   H23       1.0  0.62784  0.64225  0.06744  1.0000
  H   H24       1.0  0.12784  0.85775  0.93257  1.0000
  C   C1        1.0  0.63887  0.10123  0.78286  1.0000
  C   C2        1.0  0.13888  0.39877  0.21712  1.0000
  C   C3        1.0  0.36113  0.89878  0.21715  1.0000
  C   C4        1.0  0.86113  0.60123  0.78287  1.0000
  C   C5        1.0  0.77775  0.08687  0.71409  1.0000
  C   C6        1.0  0.27773  0.41314  0.28591  1.0000
  C   C7        1.0  0.22226  0.91313  0.28591  1.0000
  C   C8        1.0  0.72227  0.58686  0.71409  1.0000
  C   C9        1.0  0.72306  0.99622  0.62566  1.0000
  C   C10       1.0  0.22303  0.50381  0.37434  1.0000
  C   C11       1.0  0.27694  0.00379  0.37434  1.0000
  C   C12       1.0  0.77697  0.49621  0.62566  1.0000
  C   C13       1.0  0.52802  0.91882  0.60776  1.0000
  C   C14       1.0  0.02799  0.58118  0.39224  1.0000
  C   C15       1.0  0.47200  0.08117  0.39223  1.0000
  C   C16       1.0  0.97201  0.41882  0.60776  1.0000
  C   C17       1.0  0.38490  0.93196  0.67383  1.0000
  C   C18       1.0  0.88491  0.56802  0.32615  1.0000
  C   C19       1.0  0.61510  0.06804  0.32616  1.0000
  C   C20       1.0  0.11509  0.43196  0.67384  1.0000
  C   C21       1.0  0.44189  0.02408  0.76217  1.0000
  C   C22       1.0  0.94188  0.47591  0.23782  1.0000
  C   C23       1.0  0.55812  0.97592  0.23782  1.0000
  C   C24       1.0  0.05812  0.52408  0.76218  1.0000
  C   C25       1.0  0.70315  0.20065  0.87664  1.0000
  C   C26       1.0  0.20314  0.29937  0.12336  1.0000
  C   C27       1.0  0.29685  0.79936  0.12336  1.0000
  C   C28       1.0  0.79686  0.70063  0.87664  1.0000
  O   O1        1.0  0.87686  0.27812  0.89253  1.0000
  O   O2        1.0  0.37686  0.22189  0.10748  1.0000
  O   O3        1.0  0.12312  0.72189  0.10748  1.0000
  O   O4        1.0  0.62313  0.77811  0.89252  1.0000
  O   O5        1.0  0.57352  0.20867  0.93979  1.0000
  O   O6        1.0  0.07355  0.29130  0.06020  1.0000
  O   O7        1.0  0.42647  0.79132  0.06021  1.0000
  O   O8        1.0  0.92646  0.70869  0.93980  1.0000
  O   O9        1.0  0.27955  0.46798  0.93690  1.0000
  O   O10       1.0  0.77956  0.03202  0.06310  1.0000
  O   O11       1.0  0.72044  0.53202  0.06311  1.0000
  O   O12       1.0  0.22044  0.96798  0.93690  1.0000
  F   F1        1.0  0.47509  0.82299  0.52124  1.0000
  F   F2        1.0  0.97509  0.67700  0.47873  1.0000
  F   F3        1.0  0.52493  0.17702  0.47876  1.0000
  F   F4        1.0  0.02491  0.32300  0.52126  1.0000
