data_image0
_chemical_formula_structural       Zn2H26C38N10O8
_chemical_formula_sum              "Zn2 H26 C38 N10 O8"
_cell_length_a       9.26897
_cell_length_b       10.8364
_cell_length_c       11.2215
_cell_angle_alpha    86.1497
_cell_angle_beta     72.837
_cell_angle_gamma    69.668

_space_group_name_H-M_alt    "P 1"
_space_group_IT_number       1

loop_
  _space_group_symop_operation_xyz
  'x, y, z'

loop_
  _atom_site_type_symbol
  _atom_site_label
  _atom_site_symmetry_multiplicity
  _atom_site_fract_x
  _atom_site_fract_y
  _atom_site_fract_z
  _atom_site_occupancy
  Zn  Zn1       1.0  0.58814  0.71752  0.68122  1.0000
  Zn  Zn2       1.0  0.41186  0.28248  0.31878  1.0000
  H   H1        1.0  0.61659  0.62830  0.95883  1.0000
  H   H2        1.0  0.38341  0.37170  0.04117  1.0000
  H   H3        1.0  0.86653  0.43134  0.60585  1.0000
  H   H4        1.0  0.13346  0.56866  0.39415  1.0000
  H   H5        1.0  0.99797  0.28284  0.77873  1.0000
  H   H6        1.0  0.00203  0.71716  0.22127  1.0000
  H   H7        1.0  0.08730  0.25745  0.93444  1.0000
  H   H8        1.0  0.91270  0.74255  0.06556  1.0000
  H   H9        1.0  0.15273  0.21596  0.13678  1.0000
  H   H10       1.0  0.84727  0.78404  0.86322  1.0000
  H   H11       1.0  0.95927  0.35121  0.32749  1.0000
  H   H12       1.0  0.04074  0.64878  0.67251  1.0000
  H   H13       1.0  0.84522  0.54251  0.43643  1.0000
  H   H14       1.0  0.15478  0.45750  0.56357  1.0000
  H   H15       1.0  0.45995  0.60162  0.28317  1.0000
  H   H16       1.0  0.54005  0.39838  0.71683  1.0000
  H   H17       1.0  0.34438  0.73342  0.51718  1.0000
  H   H18       1.0  0.65562  0.26658  0.48282  1.0000
  H   H19       1.0  0.20032  0.90029  0.11690  1.0000
  H   H20       1.0  0.79968  0.09971  0.88310  1.0000
  H   H21       1.0  0.08634  0.96569  0.76888  1.0000
  H   H22       1.0  0.91366  0.03431  0.23112  1.0000
  H   H23       1.0  0.12831  0.77348  0.40498  1.0000
  H   H24       1.0  0.87168  0.22652  0.59502  1.0000
  H   H25       1.0  0.73159  0.06102  0.65890  1.0000
  H   H26       1.0  0.26840  0.93899  0.34110  1.0000
  C   C1        1.0  0.69976  0.55476  0.88688  1.0000
  C   C2        1.0  0.30025  0.44524  0.11312  1.0000
  C   C3        1.0  0.83075  0.45064  0.70562  1.0000
  C   C4        1.0  0.16925  0.54936  0.29438  1.0000
  C   C5        1.0  0.90058  0.37627  0.79022  1.0000
  C   C6        1.0  0.09942  0.62373  0.20978  1.0000
  C   C7        1.0  0.85884  0.41179  0.01810  1.0000
  C   C8        1.0  0.14116  0.58821  0.98190  1.0000
  C   C9        1.0  0.00455  0.31440  0.01850  1.0000
  C   C10       1.0  0.99545  0.68560  0.98150  1.0000
  C   C11       1.0  0.04110  0.29191  0.13161  1.0000
  C   C12       1.0  0.95890  0.70809  0.86839  1.0000
  C   C13       1.0  0.93405  0.36685  0.23786  1.0000
  C   C14       1.0  0.06595  0.63315  0.76214  1.0000
  C   C15       1.0  0.79361  0.46286  0.22472  1.0000
  C   C16       1.0  0.20640  0.53714  0.77528  1.0000
  C   C17       1.0  0.72350  0.57309  0.43000  1.0000
  C   C18       1.0  0.27650  0.42691  0.57000  1.0000
  C   C19       1.0  0.51926  0.60929  0.35078  1.0000
  C   C20       1.0  0.48074  0.39071  0.64922  1.0000
  C   C21       1.0  0.46491  0.67263  0.46563  1.0000
  C   C22       1.0  0.53509  0.32736  0.53437  1.0000
  C   C23       1.0  0.32884  0.84171  0.87169  1.0000
  C   C24       1.0  0.67116  0.15830  0.12831  1.0000
  C   C25       1.0  0.15912  0.92542  0.93688  1.0000
  C   C26       1.0  0.84088  0.07459  0.06312  1.0000
  C   C27       1.0  0.11089  0.94423  0.06709  1.0000
  C   C28       1.0  0.88911  0.05577  0.93291  1.0000
  C   C29       1.0  0.04735  0.98204  0.86995  1.0000
  C   C30       1.0  0.95265  0.01796  0.13005  1.0000
  C   C31       1.0  0.84048  0.80728  0.57353  1.0000
  C   C32       1.0  0.15951  0.19273  0.42647  1.0000
  C   C33       1.0  0.92228  0.90741  0.53591  1.0000
  C   C34       1.0  0.07771  0.09259  0.46409  1.0000
  C   C35       1.0  0.07322  0.87307  0.44625  1.0000
  C   C36       1.0  0.92678  0.12692  0.55375  1.0000
  C   C37       1.0  0.84920  0.03539  0.58965  1.0000
  C   C38       1.0  0.15080  0.96461  0.41035  1.0000
  N   N1        1.0  0.70610  0.56099  0.76682  1.0000
  N   N2        1.0  0.29390  0.43901  0.23318  1.0000
  N   N3        1.0  0.81702  0.44312  0.90511  1.0000
  N   N4        1.0  0.18298  0.55689  0.09489  1.0000
  N   N5        1.0  0.75418  0.48530  0.11847  1.0000
  N   N6        1.0  0.24582  0.51470  0.88152  1.0000
  N   N7        1.0  0.68354  0.54526  0.32972  1.0000
  N   N8        1.0  0.31646  0.45474  0.67028  1.0000
  N   N9        1.0  0.59352  0.64961  0.51336  1.0000
  N   N10       1.0  0.40647  0.35039  0.48664  1.0000
  O   O1        1.0  0.35663  0.80981  0.75508  1.0000
  O   O2        1.0  0.64337  0.19019  0.24492  1.0000
  O   O3        1.0  0.43232  0.80626  0.92949  1.0000
  O   O4        1.0  0.56768  0.19374  0.07051  1.0000
  O   O5        1.0  0.69547  0.85054  0.64681  1.0000
  O   O6        1.0  0.30453  0.14946  0.35319  1.0000
  O   O7        1.0  0.91531  0.68909  0.53456  1.0000
  O   O8        1.0  0.08468  0.31091  0.46544  1.0000
