data_image0
_chemical_formula_structural       Zn2H26C38N10O8
_chemical_formula_sum              "Zn2 H26 C38 N10 O8"
_cell_length_a       5.93477
_cell_length_b       10.8466
_cell_length_c       15.96
_cell_angle_alpha    92.1816
_cell_angle_beta     105.205
_cell_angle_gamma    90.8203

_space_group_name_H-M_alt    "P 1"
_space_group_IT_number       1

loop_
  _space_group_symop_operation_xyz
  'x, y, z'

loop_
  _atom_site_type_symbol
  _atom_site_label
  _atom_site_symmetry_multiplicity
  _atom_site_fract_x
  _atom_site_fract_y
  _atom_site_fract_z
  _atom_site_occupancy
  Zn  Zn1       1.0  0.98385  0.73783  0.19866  1.0000
  Zn  Zn2       1.0  0.01616  0.26217  0.80134  1.0000
  H   H1        1.0  0.77939  0.44312  0.16707  1.0000
  H   H2        1.0  0.22063  0.55688  0.83293  1.0000
  H   H3        1.0  0.18282  0.38311  0.30832  1.0000
  H   H4        1.0  0.81719  0.61689  0.69169  1.0000
  H   H5        1.0  0.68806  0.74006  0.33182  1.0000
  H   H6        1.0  0.31194  0.25994  0.66818  1.0000
  H   H7        1.0  0.40167  0.54346  0.35067  1.0000
  H   H8        1.0  0.59833  0.45655  0.64933  1.0000
  H   H9        1.0  0.02947  0.16522  0.29390  1.0000
  H   H10       1.0  0.97053  0.83478  0.70610  1.0000
  H   H11       1.0  0.21896  0.00448  0.22069  1.0000
  H   H12       1.0  0.78103  0.99552  0.77931  1.0000
  H   H13       1.0  0.55807  0.89240  0.23471  1.0000
  H   H14       1.0  0.44194  0.10761  0.76530  1.0000
  H   H15       1.0  0.94124  0.93613  0.04908  1.0000
  H   H16       1.0  0.05875  0.06387  0.95092  1.0000
  H   H17       1.0  0.70942  0.15370  0.06322  1.0000
  H   H18       1.0  0.29055  0.84629  0.93677  1.0000
  H   H19       1.0  0.60351  0.81427  0.42465  1.0000
  H   H20       1.0  0.39649  0.18572  0.57535  1.0000
  H   H21       1.0  0.09866  0.08073  0.45327  1.0000
  H   H22       1.0  0.90134  0.91927  0.54674  1.0000
  H   H23       1.0  0.18133  0.42140  0.05970  1.0000
  H   H24       1.0  0.81869  0.57861  0.94029  1.0000
  H   H25       1.0  0.58284  0.72565  0.00454  1.0000
  H   H26       1.0  0.41718  0.27436  0.99545  1.0000
  C   C1        1.0  0.66330  0.64806  0.30180  1.0000
  C   C2        1.0  0.33670  0.35194  0.69819  1.0000
  C   C3        1.0  0.52351  0.55154  0.31127  1.0000
  C   C4        1.0  0.47650  0.44846  0.68873  1.0000
  C   C5        1.0  0.72129  0.49782  0.21519  1.0000
  C   C6        1.0  0.27872  0.50218  0.78481  1.0000
  C   C7        1.0  0.45612  0.33617  0.24545  1.0000
  C   C8        1.0  0.54388  0.66382  0.75455  1.0000
  C   C9        1.0  0.26384  0.31106  0.27788  1.0000
  C   C10       1.0  0.73616  0.68894  0.72212  1.0000
  C   C11       1.0  0.17805  0.18975  0.26926  1.0000
  C   C12       1.0  0.82195  0.81025  0.73074  1.0000
  C   C13       1.0  0.28179  0.09981  0.22834  1.0000
  C   C14       1.0  0.71821  0.90019  0.77166  1.0000
  C   C15       1.0  0.47004  0.13659  0.19720  1.0000
  C   C16       1.0  0.52995  0.86340  0.80280  1.0000
  C   C17       1.0  0.62955  0.93057  0.18517  1.0000
  C   C18       1.0  0.37045  0.06943  0.81483  1.0000
  C   C19       1.0  0.82475  0.96079  0.08880  1.0000
  C   C20       1.0  0.17524  0.03921  0.91120  1.0000
  C   C21       1.0  0.71312  0.06829  0.09662  1.0000
  C   C22       1.0  0.28687  0.93171  0.90337  1.0000
  C   C23       1.0  0.15070  0.88169  0.35537  1.0000
  C   C24       1.0  0.84929  0.11831  0.64463  1.0000
  C   C25       1.0  0.33284  0.94173  0.42996  1.0000
  C   C26       1.0  0.66716  0.05827  0.57005  1.0000
  C   C27       1.0  0.55844  0.89578  0.45765  1.0000
  C   C28       1.0  0.44155  0.10422  0.54235  1.0000
  C   C29       1.0  0.27561  0.04653  0.47348  1.0000
  C   C30       1.0  0.72439  0.95346  0.52653  1.0000
  C   C31       1.0  0.22915  0.67148  0.07617  1.0000
  C   C32       1.0  0.77086  0.32852  0.92382  1.0000
  C   C33       1.0  0.36598  0.58270  0.03547  1.0000
  C   C34       1.0  0.63404  0.41731  0.96453  1.0000
  C   C35       1.0  0.32115  0.45517  0.03330  1.0000
  C   C36       1.0  0.67887  0.54484  0.96670  1.0000
  C   C37       1.0  0.54592  0.62675  0.00165  1.0000
  C   C38       1.0  0.45410  0.37325  0.99835  1.0000
  N   N1        1.0  0.78471  0.61367  0.24189  1.0000
  N   N2        1.0  0.21529  0.38633  0.75811  1.0000
  N   N3        1.0  0.56192  0.45597  0.25649  1.0000
  N   N4        1.0  0.43809  0.54403  0.74351  1.0000
  N   N5        1.0  0.55759  0.25183  0.20542  1.0000
  N   N6        1.0  0.44240  0.74816  0.79458  1.0000
  N   N7        1.0  0.58913  0.04796  0.15801  1.0000
  N   N8        1.0  0.41086  0.95204  0.84199  1.0000
  N   N9        1.0  0.77491  0.87653  0.14547  1.0000
  N   N10       1.0  0.22509  0.12347  0.85453  1.0000
  O   O1        1.0  0.13952  0.62492  0.13437  1.0000
  O   O2        1.0  0.86050  0.37508  0.86564  1.0000
  O   O3        1.0  0.93987  0.90091  0.34910  1.0000
  O   O4        1.0  0.06012  0.09909  0.65090  1.0000
  O   O5        1.0  0.22759  0.81307  0.30011  1.0000
  O   O6        1.0  0.77241  0.18693  0.69990  1.0000
  O   O7        1.0  0.21045  0.78121  0.05428  1.0000
  O   O8        1.0  0.78954  0.21879  0.94571  1.0000
