data_image0
_chemical_formula_structural       Zn2H32C36N4O18
_chemical_formula_sum              "Zn2 H32 C36 N4 O18"
_cell_length_a       7.68603
_cell_length_b       11.3715
_cell_length_c       11.4608
_cell_angle_alpha    68.9274
_cell_angle_beta     89.7118
_cell_angle_gamma    72.5221

_space_group_name_H-M_alt    "P 1"
_space_group_IT_number       1

loop_
  _space_group_symop_operation_xyz
  'x, y, z'

loop_
  _atom_site_type_symbol
  _atom_site_label
  _atom_site_symmetry_multiplicity
  _atom_site_fract_x
  _atom_site_fract_y
  _atom_site_fract_z
  _atom_site_occupancy
  Zn  Zn1       1.0  0.27611  0.34456  0.97383  1.0000
  Zn  Zn2       1.0  0.72389  0.65544  0.02617  1.0000
  H   H1        1.0  0.87086  0.78926  0.31928  1.0000
  H   H2        1.0  0.12913  0.21074  0.68072  1.0000
  H   H3        1.0  0.96345  0.41416  0.80805  1.0000
  H   H4        1.0  0.03655  0.58584  0.19195  1.0000
  H   H5        1.0  0.99583  0.52992  0.84534  1.0000
  H   H6        1.0  0.00417  0.47008  0.15466  1.0000
  H   H7        1.0  0.45424  0.50411  0.33243  1.0000
  H   H8        1.0  0.54576  0.49590  0.66757  1.0000
  H   H9        1.0  0.48586  0.41969  0.14082  1.0000
  H   H10       1.0  0.51414  0.58031  0.85918  1.0000
  H   H11       1.0  0.70543  0.07904  0.48513  1.0000
  H   H12       1.0  0.29458  0.92096  0.51487  1.0000
  H   H13       1.0  0.56078  0.95269  0.39451  1.0000
  H   H14       1.0  0.43923  0.04731  0.60549  1.0000
  H   H15       1.0  0.38171  0.07164  0.18161  1.0000
  H   H16       1.0  0.61829  0.92837  0.81839  1.0000
  H   H17       1.0  0.75345  0.39868  0.28921  1.0000
  H   H18       1.0  0.24655  0.60132  0.71079  1.0000
  H   H19       1.0  0.79757  0.27463  0.44536  1.0000
  H   H20       1.0  0.20243  0.72538  0.55464  1.0000
  H   H21       1.0  0.57355  0.30127  0.59311  1.0000
  H   H22       1.0  0.42646  0.69873  0.40689  1.0000
  H   H23       1.0  0.38549  0.32546  0.48783  1.0000
  H   H24       1.0  0.61451  0.67454  0.51217  1.0000
  H   H25       1.0  0.71917  0.56764  0.35682  1.0000
  H   H26       1.0  0.28083  0.43237  0.64318  1.0000
  H   H27       1.0  0.77146  0.44793  0.51611  1.0000
  H   H28       1.0  0.22854  0.55207  0.48389  1.0000
  H   H29       1.0  0.64122  0.08465  0.92888  1.0000
  H   H30       1.0  0.35878  0.91535  0.07113  1.0000
  H   H31       1.0  0.06137  0.12055  0.22863  1.0000
  H   H32       1.0  0.93863  0.87944  0.77137  1.0000
  C   C1        1.0  0.50279  0.31747  0.20175  1.0000
  C   C2        1.0  0.49721  0.68253  0.79825  1.0000
  C   C3        1.0  0.60288  0.26002  0.32101  1.0000
  C   C4        1.0  0.39712  0.73998  0.67899  1.0000
  C   C5        1.0  0.62529  0.12656  0.39256  1.0000
  C   C6        1.0  0.37471  0.87344  0.60744  1.0000
  C   C7        1.0  0.54536  0.05701  0.34305  1.0000
  C   C8        1.0  0.45465  0.94299  0.65695  1.0000
  C   C9        1.0  0.44650  0.12184  0.22409  1.0000
  C   C10       1.0  0.55350  0.87816  0.77591  1.0000
  C   C11       1.0  0.69237  0.33923  0.36543  1.0000
  C   C12       1.0  0.30763  0.66077  0.63457  1.0000
  C   C13       1.0  0.46639  0.37633  0.51792  1.0000
  C   C14       1.0  0.53361  0.62367  0.48208  1.0000
  C   C15       1.0  0.66073  0.51893  0.44125  1.0000
  C   C16       1.0  0.33927  0.48108  0.55875  1.0000
  C   C17       1.0  0.75177  0.21715  0.97587  1.0000
  C   C18       1.0  0.24823  0.78284  0.02413  1.0000
  C   C19       1.0  0.73138  0.09347  0.99602  1.0000
  C   C20       1.0  0.26863  0.90653  0.00398  1.0000
  C   C21       1.0  0.81701  0.98071  0.10373  1.0000
  C   C22       1.0  0.18298  0.01928  0.89627  1.0000
  C   C23       1.0  0.93977  0.99046  0.18891  1.0000
  C   C24       1.0  0.06024  0.00954  0.81109  1.0000
  C   C25       1.0  0.96571  0.11314  0.16409  1.0000
  C   C26       1.0  0.03428  0.88686  0.83591  1.0000
  C   C27       1.0  0.86847  0.22758  0.06272  1.0000
  C   C28       1.0  0.13153  0.77242  0.93729  1.0000
  C   C29       1.0  0.88544  0.35660  0.06010  1.0000
  C   C30       1.0  0.11456  0.64339  0.93990  1.0000
  C   C31       1.0  0.76269  0.85874  0.12334  1.0000
  C   C32       1.0  0.23731  0.14125  0.87666  1.0000
  C   C33       1.0  0.64737  0.33529  0.86215  1.0000
  C   C34       1.0  0.35263  0.66470  0.13786  1.0000
  C   C35       1.0  0.05259  0.88208  0.30677  1.0000
  C   C36       1.0  0.94739  0.11791  0.69323  1.0000
  N   N1        1.0  0.42714  0.24988  0.15415  1.0000
  N   N2        1.0  0.57286  0.75012  0.84585  1.0000
  N   N3        1.0  0.55911  0.43905  0.40850  1.0000
  N   N4        1.0  0.44089  0.56095  0.59150  1.0000
  O   O1        1.0  0.47253  0.37331  0.85168  1.0000
  O   O2        1.0  0.52747  0.62669  0.14832  1.0000
  O   O3        1.0  0.73592  0.39085  0.77710  1.0000
  O   O4        1.0  0.26408  0.60915  0.22290  1.0000
  O   O5        1.0  0.74478  0.45983  0.02039  1.0000
  O   O6        1.0  0.25522  0.54017  0.97961  1.0000
  O   O7        1.0  0.04042  0.35106  0.10584  1.0000
  O   O8        1.0  0.95958  0.64894  0.89416  1.0000
  O   O9        1.0  0.98773  0.78601  0.37334  1.0000
  O   O10       1.0  0.01226  0.21399  0.62666  1.0000
  O   O11       1.0  0.20059  0.88767  0.34293  1.0000
  O   O12       1.0  0.79942  0.11232  0.65707  1.0000
  O   O13       1.0  0.74714  0.78640  0.23511  1.0000
  O   O14       1.0  0.25285  0.21360  0.76489  1.0000
  O   O15       1.0  0.72770  0.83830  0.02561  1.0000
  O   O16       1.0  0.27230  0.16170  0.97439  1.0000
  O   O17       1.0  0.05938  0.45104  0.82170  1.0000
  O   O18       1.0  0.94062  0.54896  0.17830  1.0000
