data_image0
_chemical_formula_structural       Co2H20C26N8O6
_chemical_formula_sum              "Co2 H20 C26 N8 O6"
_cell_length_a       6.80727
_cell_length_b       9.36041
_cell_length_c       9.50715
_cell_angle_alpha    94.2149
_cell_angle_beta     93.3427
_cell_angle_gamma    93.1841

_space_group_name_H-M_alt    "P 1"
_space_group_IT_number       1

loop_
  _space_group_symop_operation_xyz
  'x, y, z'

loop_
  _atom_site_type_symbol
  _atom_site_label
  _atom_site_symmetry_multiplicity
  _atom_site_fract_x
  _atom_site_fract_y
  _atom_site_fract_z
  _atom_site_occupancy
  Co  Co1       1.0  0.00000  0.50000  1.00000  1.0000
  Co  Co2       1.0  0.50000  0.50000  0.00000  1.0000
  H   H1        1.0  0.11822  0.03149  0.15471  1.0000
  H   H2        1.0  0.88177  0.96851  0.84530  1.0000
  H   H3        1.0  0.24584  0.91620  0.58119  1.0000
  H   H4        1.0  0.75416  0.08380  0.41881  1.0000
  H   H5        1.0  0.39187  0.34514  0.46486  1.0000
  H   H6        1.0  0.60812  0.65486  0.53515  1.0000
  H   H7        1.0  0.37246  0.97880  0.78373  1.0000
  H   H8        1.0  0.62755  0.02121  0.21627  1.0000
  H   H9        1.0  0.47531  0.16107  0.02261  1.0000
  H   H10       1.0  0.52470  0.83893  0.97739  1.0000
  H   H11       1.0  0.40458  0.41312  0.67793  1.0000
  H   H12       1.0  0.59542  0.58688  0.32208  1.0000
  H   H13       1.0  0.10017  0.81350  0.08892  1.0000
  H   H14       1.0  0.89983  0.18650  0.91108  1.0000
  H   H15       1.0  0.02693  0.46667  0.34099  1.0000
  H   H16       1.0  0.97307  0.53334  0.65901  1.0000
  H   H17       1.0  0.12581  0.71079  0.51855  1.0000
  H   H18       1.0  0.87418  0.28921  0.48145  1.0000
  H   H19       1.0  0.24828  0.57709  0.84435  1.0000
  H   H20       1.0  0.75173  0.42291  0.15565  1.0000
  C   C1        1.0  0.25841  0.30662  0.19158  1.0000
  C   C2        1.0  0.74159  0.69338  0.80842  1.0000
  C   C3        1.0  0.17870  0.05750  0.26250  1.0000
  C   C4        1.0  0.82128  0.94250  0.73751  1.0000
  C   C5        1.0  0.18538  0.95465  0.36192  1.0000
  C   C6        1.0  0.81462  0.04536  0.63808  1.0000
  C   C7        1.0  0.24853  0.99467  0.50265  1.0000
  C   C8        1.0  0.75147  0.00533  0.49735  1.0000
  C   C9        1.0  0.31527  0.13685  0.54168  1.0000
  C   C10       1.0  0.68472  0.86315  0.45832  1.0000
  C   C11       1.0  0.32830  0.23649  0.43934  1.0000
  C   C12       1.0  0.67169  0.76351  0.56066  1.0000
  C   C13       1.0  0.25522  0.19723  0.30095  1.0000
  C   C14       1.0  0.74477  0.80277  0.69905  1.0000
  C   C15       1.0  0.39094  0.09457  0.79738  1.0000
  C   C16       1.0  0.60907  0.90543  0.20263  1.0000
  C   C17       1.0  0.44146  0.18562  0.91481  1.0000
  C   C18       1.0  0.55855  0.81438  0.08519  1.0000
  C   C19       1.0  0.40612  0.32053  0.73930  1.0000
  C   C20       1.0  0.59387  0.67947  0.26070  1.0000
  C   C21       1.0  0.09198  0.75385  0.18162  1.0000
  C   C22       1.0  0.90802  0.24615  0.81837  1.0000
  C   C23       1.0  0.05519  0.57647  0.31557  1.0000
  C   C24       1.0  0.94481  0.42353  0.68443  1.0000
  C   C25       1.0  0.10647  0.69611  0.40465  1.0000
  C   C26       1.0  0.89353  0.30389  0.59535  1.0000
  N   N1        1.0  0.44776  0.32614  0.87755  1.0000
  N   N2        1.0  0.55224  0.67386  0.12245  1.0000
  N   N3        1.0  0.36943  0.18084  0.68488  1.0000
  N   N4        1.0  0.63057  0.81916  0.31512  1.0000
  N   N5        1.0  0.04756  0.61389  0.17698  1.0000
  N   N6        1.0  0.95245  0.38611  0.82301  1.0000
  N   N7        1.0  0.12887  0.80944  0.31897  1.0000
  N   N8        1.0  0.87112  0.19056  0.68102  1.0000
  O   O1        1.0  0.41117  0.39180  0.19698  1.0000
  O   O2        1.0  0.58884  0.60820  0.80302  1.0000
  O   O3        1.0  0.10840  0.30235  0.10577  1.0000
  O   O4        1.0  0.89161  0.69765  0.89423  1.0000
  O   O5        1.0  0.25068  0.57625  0.94679  1.0000
  O   O6        1.0  0.74932  0.42374  0.05321  1.0000
