data_image0
_chemical_formula_structural       Zn2H18C26N10O10
_chemical_formula_sum              "Zn2 H18 C26 N10 O10"
_cell_length_a       7.68581
_cell_length_b       9.22124
_cell_length_c       9.22123
_cell_angle_alpha    96.3744
_cell_angle_beta     92.6842
_cell_angle_gamma    92.6841

_space_group_name_H-M_alt    "P 1"
_space_group_IT_number       1

loop_
  _space_group_symop_operation_xyz
  'x, y, z'

loop_
  _atom_site_type_symbol
  _atom_site_label
  _atom_site_symmetry_multiplicity
  _atom_site_fract_x
  _atom_site_fract_y
  _atom_site_fract_z
  _atom_site_occupancy
  Zn  Zn1       1.0  0.50000  1.00000  0.00000  1.0000
  Zn  Zn2       1.0  0.00000  0.00000  1.00000  1.0000
  H   H1        1.0  0.99206  0.63908  0.99083  1.0000
  H   H2        1.0  0.50794  0.00917  0.36092  1.0000
  H   H3        1.0  0.00794  0.36092  0.00917  1.0000
  H   H4        1.0  0.49206  0.99083  0.63908  1.0000
  H   H5        1.0  0.09805  0.91822  0.67075  1.0000
  H   H6        1.0  0.40195  0.32925  0.08179  1.0000
  H   H7        1.0  0.90195  0.08178  0.32925  1.0000
  H   H8        1.0  0.59805  0.67075  0.91822  1.0000
  H   H9        1.0  0.25000  0.43149  0.56852  1.0000
  H   H10       1.0  0.75000  0.56851  0.43149  1.0000
  H   H11       1.0  0.10070  0.84537  0.43583  1.0000
  H   H12       1.0  0.39930  0.56416  0.15463  1.0000
  H   H13       1.0  0.89930  0.15463  0.56417  1.0000
  H   H14       1.0  0.60070  0.43583  0.84537  1.0000
  H   H15       1.0  0.10207  0.47148  0.74851  1.0000
  H   H16       1.0  0.39793  0.25149  0.52852  1.0000
  H   H17       1.0  0.89792  0.52852  0.25149  1.0000
  H   H18       1.0  0.60207  0.74851  0.47148  1.0000
  C   C1        1.0  0.25000  0.71373  0.28627  1.0000
  C   C2        1.0  0.75000  0.28627  0.71373  1.0000
  C   C3        1.0  0.03093  0.67135  0.88718  1.0000
  C   C4        1.0  0.46908  0.11282  0.32865  1.0000
  C   C5        1.0  0.96907  0.32865  0.11282  1.0000
  C   C6        1.0  0.53093  0.88718  0.67135  1.0000
  C   C7        1.0  0.07736  0.81947  0.72262  1.0000
  C   C8        1.0  0.42264  0.27738  0.18053  1.0000
  C   C9        1.0  0.92265  0.18053  0.27738  1.0000
  C   C10       1.0  0.57735  0.72261  0.81947  1.0000
  C   C11       1.0  0.25000  0.51060  0.48940  1.0000
  C   C12       1.0  0.75000  0.48940  0.51061  1.0000
  C   C13       1.0  0.17620  0.64549  0.52160  1.0000
  C   C14       1.0  0.32380  0.47840  0.35451  1.0000
  C   C15       1.0  0.82380  0.35451  0.47840  1.0000
  C   C16       1.0  0.67620  0.52160  0.64549  1.0000
  C   C17       1.0  0.16782  0.74428  0.41733  1.0000
  C   C18       1.0  0.33218  0.58267  0.25572  1.0000
  C   C19       1.0  0.83218  0.25572  0.58267  1.0000
  C   C20       1.0  0.66782  0.41733  0.74428  1.0000
  C   C21       1.0  0.08288  0.58740  0.76695  1.0000
  C   C22       1.0  0.41712  0.23305  0.41260  1.0000
  C   C23       1.0  0.91712  0.41260  0.23305  1.0000
  C   C24       1.0  0.58287  0.76695  0.58740  1.0000
  C   C25       1.0  0.25000  0.82352  0.17648  1.0000
  C   C26       1.0  0.75000  0.17647  0.82352  1.0000
  N   N1        1.0  0.02841  0.81538  0.85817  1.0000
  N   N2        1.0  0.47159  0.14183  0.18462  1.0000
  N   N3        1.0  0.97159  0.18462  0.14183  1.0000
  N   N4        1.0  0.52841  0.85817  0.81538  1.0000
  N   N5        1.0  0.11173  0.68211  0.66214  1.0000
  N   N6        1.0  0.38827  0.33786  0.31789  1.0000
  N   N7        1.0  0.88827  0.31789  0.33786  1.0000
  N   N8        1.0  0.61173  0.66214  0.68211  1.0000
  N   N9        1.0  0.25000  0.18477  0.81523  1.0000
  N   N10       1.0  0.75000  0.81523  0.18477  1.0000
  O   O1        1.0  0.25000  0.09008  0.90992  1.0000
  O   O2        1.0  0.75000  0.90992  0.09008  1.0000
  O   O3        1.0  0.37930  0.82545  0.09589  1.0000
  O   O4        1.0  0.12070  0.90411  0.17455  1.0000
  O   O5        1.0  0.62070  0.17455  0.90411  1.0000
  O   O6        1.0  0.87930  0.09589  0.82545  1.0000
  O   O7        1.0  0.25366  0.31832  0.85995  1.0000
  O   O8        1.0  0.24634  0.14005  0.68168  1.0000
  O   O9        1.0  0.74634  0.68168  0.14005  1.0000
  O   O10       1.0  0.75366  0.85995  0.31832  1.0000
