data_image0
_chemical_formula_structural       Li2H52C20S4N2O16
_chemical_formula_sum              "Li2 H52 C20 S4 N2 O16"
_cell_length_a       9.35003
_cell_length_b       10.2646
_cell_length_c       10.2646
_cell_angle_alpha    92.3618
_cell_angle_beta     111.694
_cell_angle_gamma    111.694

_space_group_name_H-M_alt    "P 1"
_space_group_IT_number       1

loop_
  _space_group_symop_operation_xyz
  'x, y, z'

loop_
  _atom_site_type_symbol
  _atom_site_label
  _atom_site_symmetry_multiplicity
  _atom_site_fract_x
  _atom_site_fract_y
  _atom_site_fract_z
  _atom_site_occupancy
  Li  Li1       1.0  0.77907  0.29175  0.46656  1.0000
  Li  Li2       1.0  0.27907  0.46656  0.29175  1.0000
  H   H1        1.0  0.32688  0.28135  0.50512  1.0000
  H   H2        1.0  0.82688  0.50512  0.28135  1.0000
  H   H3        1.0  0.33727  0.14957  0.39195  1.0000
  H   H4        1.0  0.83727  0.39195  0.14957  1.0000
  H   H5        1.0  0.45315  0.18546  0.58174  1.0000
  H   H6        1.0  0.95315  0.58174  0.18546  1.0000
  H   H7        1.0  0.03008  0.05247  0.29285  1.0000
  H   H8        1.0  0.53008  0.29285  0.05247  1.0000
  H   H9        1.0  0.02513  0.17112  0.42282  1.0000
  H   H10       1.0  0.52513  0.42282  0.17112  1.0000
  H   H11       1.0  0.91977  0.98020  0.40141  1.0000
  H   H12       1.0  0.41976  0.40141  0.98020  1.0000
  H   H13       1.0  0.16164  0.90274  0.36094  1.0000
  H   H14       1.0  0.66164  0.36094  0.90274  1.0000
  H   H15       1.0  0.06915  0.84298  0.48203  1.0000
  H   H16       1.0  0.56915  0.48203  0.84297  1.0000
  H   H17       1.0  0.37375  0.93405  0.68184  1.0000
  H   H18       1.0  0.87375  0.68184  0.93405  1.0000
  H   H19       1.0  0.44860  0.97339  0.54764  1.0000
  H   H20       1.0  0.94860  0.54764  0.97339  1.0000
  H   H21       1.0  0.27538  0.71154  0.41938  1.0000
  H   H22       1.0  0.77538  0.41938  0.71154  1.0000
  H   H23       1.0  0.44136  0.74171  0.58663  1.0000
  H   H24       1.0  0.94137  0.58663  0.74171  1.0000
  H   H25       1.0  0.06465  0.64146  0.53050  1.0000
  H   H26       1.0  0.56465  0.53050  0.64146  1.0000
  H   H27       1.0  0.23254  0.68042  0.70221  1.0000
  H   H28       1.0  0.73255  0.70221  0.68041  1.0000
  H   H29       1.0  0.31809  0.09635  0.73083  1.0000
  H   H30       1.0  0.81808  0.73083  0.09635  1.0000
  H   H31       1.0  0.22164  0.21570  0.67477  1.0000
  H   H32       1.0  0.72164  0.67477  0.21570  1.0000
  H   H33       1.0  0.99816  0.89669  0.63275  1.0000
  H   H34       1.0  0.49816  0.63275  0.89669  1.0000
  H   H35       1.0  0.94758  0.04618  0.63694  1.0000
  H   H36       1.0  0.44758  0.63694  0.04619  1.0000
  H   H37       1.0  0.16199  0.13431  0.90121  1.0000
  H   H38       1.0  0.66199  0.90121  0.13431  1.0000
  H   H39       1.0  0.97344  0.98354  0.85895  1.0000
  H   H40       1.0  0.47344  0.85894  0.98354  1.0000
  H   H41       1.0  0.31505  0.97261  0.90945  1.0000
  H   H42       1.0  0.81505  0.90945  0.97260  1.0000
  H   H43       1.0  0.11919  0.82005  0.86341  1.0000
  H   H44       1.0  0.61919  0.86341  0.82004  1.0000
  H   H45       1.0  0.68985  0.05408  0.51194  1.0000
  H   H46       1.0  0.18985  0.51194  0.05408  1.0000
  H   H47       1.0  0.74442  0.13736  0.66878  1.0000
  H   H48       1.0  0.24441  0.66878  0.13736  1.0000
  H   H49       1.0  0.57743  0.13107  0.23422  1.0000
  H   H50       1.0  0.07742  0.23421  0.13107  1.0000
  H   H51       1.0  0.75011  0.16542  0.21813  1.0000
  H   H52       1.0  0.25010  0.21813  0.16542  1.0000
  C   C1        1.0  0.33738  0.17921  0.49559  1.0000
  C   C2        1.0  0.83738  0.49559  0.17921  1.0000
  C   C3        1.0  0.02869  0.06804  0.39838  1.0000
  C   C4        1.0  0.52869  0.39838  0.06804  1.0000
  C   C5        1.0  0.18250  0.91945  0.47407  1.0000
  C   C6        1.0  0.68250  0.47407  0.91945  1.0000
  C   C7        1.0  0.34120  0.90245  0.56739  1.0000
  C   C8        1.0  0.84120  0.56739  0.90245  1.0000
  C   C9        1.0  0.31827  0.74740  0.53503  1.0000
  C   C10       1.0  0.81827  0.53503  0.74740  1.0000
  C   C11       1.0  0.19293  0.64734  0.58650  1.0000
  C   C12       1.0  0.69293  0.58650  0.64734  1.0000
  C   C13       1.0  0.20167  0.10284  0.65824  1.0000
  C   C14       1.0  0.70166  0.65824  0.10284  1.0000
  C   C15       1.0  0.04879  0.00987  0.68421  1.0000
  C   C16       1.0  0.54878  0.68421  0.00987  1.0000
  C   C17       1.0  0.09179  0.02137  0.84490  1.0000
  C   C18       1.0  0.59178  0.84490  0.02137  1.0000
  C   C19       1.0  0.19070  0.93464  0.91375  1.0000
  C   C20       1.0  0.69070  0.91375  0.93463  1.0000
  S   S1        1.0  0.17308  0.46744  0.56014  1.0000
  S   S2        1.0  0.67304  0.56013  0.46743  1.0000
  S   S3        1.0  0.23529  0.94546  0.10086  1.0000
  S   S4        1.0  0.73527  0.10086  0.94547  1.0000
  N   N1        1.0  0.18759  0.06668  0.50770  1.0000
  N   N2        1.0  0.68759  0.50770  0.06668  1.0000
  O   O1        1.0  0.01973  0.37882  0.57861  1.0000
  O   O2        1.0  0.51974  0.57860  0.37882  1.0000
  O   O3        1.0  0.32652  0.46426  0.66923  1.0000
  O   O4        1.0  0.82653  0.66923  0.46425  1.0000
  O   O5        1.0  0.15546  0.43203  0.41252  1.0000
  O   O6        1.0  0.65547  0.41251  0.43203  1.0000
  O   O7        1.0  0.07392  0.90659  0.11381  1.0000
  O   O8        1.0  0.57393  0.11381  0.90659  1.0000
  O   O9        1.0  0.35391  0.09722  0.17109  1.0000
  O   O10       1.0  0.85391  0.17109  0.09722  1.0000
  O   O11       1.0  0.31759  0.84806  0.14977  1.0000
  O   O12       1.0  0.81760  0.14977  0.84805  1.0000
  O   O13       1.0  0.70034  0.16127  0.28830  1.0000
  O   O14       1.0  0.20033  0.28829  0.16128  1.0000
  O   O15       1.0  0.69940  0.13973  0.56497  1.0000
  O   O16       1.0  0.19939  0.56495  0.13972  1.0000
