data_image0
_chemical_formula_structural       Ag4H16C24N8
_chemical_formula_sum              "Ag4 H16 C24 N8"
_cell_length_a       7.52601
_cell_length_b       7.52889
_cell_length_c       11.1482
_cell_angle_alpha    100.063
_cell_angle_beta     103.089
_cell_angle_gamma    113.882

_space_group_name_H-M_alt    "P 1"
_space_group_IT_number       1

loop_
  _space_group_symop_operation_xyz
  'x, y, z'

loop_
  _atom_site_type_symbol
  _atom_site_label
  _atom_site_symmetry_multiplicity
  _atom_site_fract_x
  _atom_site_fract_y
  _atom_site_fract_z
  _atom_site_occupancy
  Ag  Ag1       1.0  0.35559  0.60535  0.74986  1.0000
  Ag  Ag2       1.0  0.64442  0.39465  0.25014  1.0000
  Ag  Ag3       1.0  0.50000  0.50000  0.50000  1.0000
  Ag  Ag4       1.0  0.50000  0.00000  0.00000  1.0000
  H   H1        1.0  0.14828  0.85537  0.34482  1.0000
  H   H2        1.0  0.01058  0.80325  0.15512  1.0000
  H   H3        1.0  0.85172  0.14463  0.65518  1.0000
  H   H4        1.0  0.98942  0.19675  0.84488  1.0000
  H   H5        1.0  0.44763  0.01968  0.27568  1.0000
  H   H6        1.0  0.24350  0.17168  0.22432  1.0000
  H   H7        1.0  0.55237  0.98033  0.72432  1.0000
  H   H8        1.0  0.75650  0.82832  0.77568  1.0000
  H   H9        1.0  0.88737  0.51276  0.72391  1.0000
  H   H10       1.0  0.28938  0.16392  0.77610  1.0000
  H   H11       1.0  0.11264  0.48725  0.27609  1.0000
  H   H12       1.0  0.71062  0.83607  0.22391  1.0000
  H   H13       1.0  0.88651  0.82694  0.44720  1.0000
  H   H14       1.0  0.87977  0.43974  0.05320  1.0000
  H   H15       1.0  0.11349  0.17306  0.55281  1.0000
  H   H16       1.0  0.12023  0.56026  0.94681  1.0000
  C   C1        1.0  0.32620  0.90244  0.53895  1.0000
  C   C2        1.0  0.86382  0.78730  0.96100  1.0000
  C   C3        1.0  0.67380  0.09756  0.46105  1.0000
  C   C4        1.0  0.13618  0.21270  0.03900  1.0000
  C   C5        1.0  0.30311  0.92136  0.41370  1.0000
  C   C6        1.0  0.00764  0.88923  0.08624  1.0000
  C   C7        1.0  0.69689  0.07865  0.58630  1.0000
  C   C8        1.0  0.99236  0.11077  0.91376  1.0000
  C   C9        1.0  0.47210  0.01597  0.37521  1.0000
  C   C10       1.0  0.14047  0.09676  0.12481  1.0000
  C   C11       1.0  0.52791  0.98403  0.62479  1.0000
  C   C12       1.0  0.85953  0.90324  0.87519  1.0000
  C   C13       1.0  0.94259  0.60678  0.66377  1.0000
  C   C14       1.0  0.44351  0.27913  0.83627  1.0000
  C   C15       1.0  0.05741  0.39321  0.33623  1.0000
  C   C16       1.0  0.55649  0.72087  0.16374  1.0000
  C   C17       1.0  0.94532  0.76793  0.51992  1.0000
  C   C18       1.0  0.74816  0.42570  0.98030  1.0000
  C   C19       1.0  0.05468  0.23207  0.48008  1.0000
  C   C20       1.0  0.25184  0.57430  0.01971  1.0000
  C   C21       1.0  0.14446  0.79789  0.57415  1.0000
  C   C22       1.0  0.72417  0.57043  0.92578  1.0000
  C   C23       1.0  0.85554  0.20211  0.42585  1.0000
  C   C24       1.0  0.27583  0.42957  0.07422  1.0000
  N   N1        1.0  0.13975  0.69518  0.66671  1.0000
  N   N2        1.0  0.52906  0.47317  0.83311  1.0000
  N   N3        1.0  0.86026  0.30482  0.33329  1.0000
  N   N4        1.0  0.47093  0.52683  0.16689  1.0000
  N   N5        1.0  0.81952  0.64694  0.57644  1.0000
  N   N6        1.0  0.57074  0.24350  0.92385  1.0000
  N   N7        1.0  0.18048  0.35305  0.42356  1.0000
  N   N8        1.0  0.42926  0.75650  0.07616  1.0000
