data_image0
_chemical_formula_structural       Gd2H22C32S2O24
_chemical_formula_sum              "Gd2 H22 C32 S2 O24"
_cell_length_a       5.67636
_cell_length_b       13.1618
_cell_length_c       13.9847
_cell_angle_alpha    110.155
_cell_angle_beta     96.0129
_cell_angle_gamma    95.6706

_space_group_name_H-M_alt    "P 1"
_space_group_IT_number       1

loop_
  _space_group_symop_operation_xyz
  'x, y, z'

loop_
  _atom_site_type_symbol
  _atom_site_label
  _atom_site_symmetry_multiplicity
  _atom_site_fract_x
  _atom_site_fract_y
  _atom_site_fract_z
  _atom_site_occupancy
  Gd  Gd1       1.0  0.62268  0.64182  0.14054  1.0000
  Gd  Gd2       1.0  0.37731  0.35819  0.85946  1.0000
  H   H1        1.0  0.42308  0.96346  0.41290  1.0000
  H   H2        1.0  0.57692  0.03654  0.58710  1.0000
  H   H3        1.0  0.52423  0.31675  0.20904  1.0000
  H   H4        1.0  0.47576  0.68325  0.79096  1.0000
  H   H5        1.0  0.81472  0.01411  0.10718  1.0000
  H   H6        1.0  0.18527  0.98589  0.89282  1.0000
  H   H7        1.0  0.06230  0.08798  0.99883  1.0000
  H   H8        1.0  0.93769  0.91202  0.00117  1.0000
  H   H9        1.0  0.75443  0.34664  0.60160  1.0000
  H   H10       1.0  0.24557  0.65337  0.39840  1.0000
  H   H11       1.0  0.49738  0.28698  0.43153  1.0000
  H   H12       1.0  0.50264  0.71303  0.56846  1.0000
  H   H13       1.0  0.92024  0.02923  0.31061  1.0000
  H   H14       1.0  0.07978  0.97077  0.68939  1.0000
  H   H15       1.0  0.20948  0.47716  0.08872  1.0000
  H   H16       1.0  0.79052  0.52284  0.91129  1.0000
  H   H17       1.0  0.15292  0.54693  0.19563  1.0000
  H   H18       1.0  0.84707  0.45307  0.80437  1.0000
  H   H19       1.0  0.41460  0.85606  0.19769  1.0000
  H   H20       1.0  0.58540  0.14394  0.80230  1.0000
  H   H21       1.0  0.24045  0.77548  0.23190  1.0000
  H   H22       1.0  0.75955  0.22452  0.76810  1.0000
  C   C1        1.0  0.73935  0.41706  0.10151  1.0000
  C   C2        1.0  0.26065  0.58293  0.89848  1.0000
  C   C3        1.0  0.77657  0.30595  0.10132  1.0000
  C   C4        1.0  0.22342  0.69405  0.89868  1.0000
  C   C5        1.0  0.64262  0.26659  0.16292  1.0000
  C   C6        1.0  0.35737  0.73341  0.83708  1.0000
  C   C7        1.0  0.65889  0.16161  0.16282  1.0000
  C   C8        1.0  0.34110  0.83839  0.83718  1.0000
  C   C9        1.0  0.80667  0.09517  0.10395  1.0000
  C   C10       1.0  0.19332  0.90483  0.89605  1.0000
  C   C11       1.0  0.94057  0.13566  0.04407  1.0000
  C   C12       1.0  0.05942  0.86433  0.95592  1.0000
  C   C13       1.0  0.92761  0.24021  0.04142  1.0000
  C   C14       1.0  0.07238  0.75979  0.95857  1.0000
  C   C15       1.0  0.08114  0.27869  0.97638  1.0000
  C   C16       1.0  0.91885  0.72130  0.02361  1.0000
  C   C17       1.0  0.13414  0.26813  0.65712  1.0000
  C   C18       1.0  0.86586  0.73187  0.34288  1.0000
  C   C19       1.0  0.98823  0.22471  0.55159  1.0000
  C   C20       1.0  0.01177  0.77529  0.44841  1.0000
  C   C21       1.0  0.79545  0.27920  0.53727  1.0000
  C   C22       1.0  0.20455  0.72081  0.46273  1.0000
  C   C23       1.0  0.65008  0.24596  0.44233  1.0000
  C   C24       1.0  0.34993  0.75404  0.55767  1.0000
  C   C25       1.0  0.69609  0.15577  0.36151  1.0000
  C   C26       1.0  0.30392  0.84423  0.63849  1.0000
  C   C27       1.0  0.88736  0.10032  0.37343  1.0000
  C   C28       1.0  0.11266  0.89968  0.62657  1.0000
  C   C29       1.0  0.03564  0.13489  0.46889  1.0000
  C   C30       1.0  0.96437  0.86511  0.53111  1.0000
  C   C31       1.0  0.23477  0.07337  0.48314  1.0000
  C   C32       1.0  0.76524  0.92663  0.51686  1.0000
  S   S1        1.0  0.49742  0.11086  0.24273  1.0000
  S   S2        1.0  0.50259  0.88913  0.75726  1.0000
  O   O1        1.0  0.60245  0.42469  0.02698  1.0000
  O   O2        1.0  0.39753  0.57530  0.97301  1.0000
  O   O3        1.0  0.82531  0.50107  0.18021  1.0000
  O   O4        1.0  0.17469  0.49893  0.81979  1.0000
  O   O5        1.0  0.08525  0.37787  0.97878  1.0000
  O   O6        1.0  0.91475  0.62213  0.02122  1.0000
  O   O7        1.0  0.20814  0.21519  0.92101  1.0000
  O   O8        1.0  0.79185  0.78481  0.07899  1.0000
  O   O9        1.0  0.03234  0.25786  0.73224  1.0000
  O   O10       1.0  0.96765  0.74214  0.26776  1.0000
  O   O11       1.0  0.34182  0.31986  0.67223  1.0000
  O   O12       1.0  0.65818  0.68015  0.32777  1.0000
  O   O13       1.0  0.34809  0.09036  0.56964  1.0000
  O   O14       1.0  0.65192  0.90965  0.43038  1.0000
  O   O15       1.0  0.27800  0.99947  0.39736  1.0000
  O   O16       1.0  0.72201  0.00054  0.60265  1.0000
  O   O17       1.0  0.28846  0.16562  0.26104  1.0000
  O   O18       1.0  0.71155  0.83438  0.73897  1.0000
  O   O19       1.0  0.47204  0.99222  0.19734  1.0000
  O   O20       1.0  0.52796  0.00778  0.80266  1.0000
  O   O21       1.0  0.28778  0.53194  0.15684  1.0000
  O   O22       1.0  0.71221  0.46805  0.84316  1.0000
  O   O23       1.0  0.37831  0.78008  0.19439  1.0000
  O   O24       1.0  0.62169  0.21992  0.80561  1.0000
