data_image0
_chemical_formula_structural       Ag4H28C32O20
_chemical_formula_sum              "Ag4 H28 C32 O20"
_cell_length_a       6.5958
_cell_length_b       10.4797
_cell_length_c       11.7278
_cell_angle_alpha    96.476
_cell_angle_beta     90
_cell_angle_gamma    90.0001

_space_group_name_H-M_alt    "P 1"
_space_group_IT_number       1

loop_
  _space_group_symop_operation_xyz
  'x, y, z'

loop_
  _atom_site_type_symbol
  _atom_site_label
  _atom_site_symmetry_multiplicity
  _atom_site_fract_x
  _atom_site_fract_y
  _atom_site_fract_z
  _atom_site_occupancy
  Ag  Ag1       1.0  0.00143  0.06589  0.64978  1.0000
  Ag  Ag2       1.0  0.50142  0.43411  0.85022  1.0000
  Ag  Ag3       1.0  0.99859  0.93410  0.35023  1.0000
  Ag  Ag4       1.0  0.49858  0.56590  0.14977  1.0000
  H   H1        1.0  0.52472  0.14526  0.24634  1.0000
  H   H2        1.0  0.02472  0.35474  0.25366  1.0000
  H   H3        1.0  0.47527  0.85474  0.75366  1.0000
  H   H4        1.0  0.97528  0.64525  0.74634  1.0000
  H   H5        1.0  0.22907  0.11635  0.84706  1.0000
  H   H6        1.0  0.72907  0.38366  0.65294  1.0000
  H   H7        1.0  0.77093  0.88366  0.15295  1.0000
  H   H8        1.0  0.27093  0.61634  0.34706  1.0000
  H   H9        1.0  0.05586  0.22869  0.05378  1.0000
  H   H10       1.0  0.55586  0.27130  0.44622  1.0000
  H   H11       1.0  0.94414  0.77131  0.94622  1.0000
  H   H12       1.0  0.44414  0.72869  0.55378  1.0000
  H   H13       1.0  0.57972  0.06919  0.84242  1.0000
  H   H14       1.0  0.07972  0.43081  0.65758  1.0000
  H   H15       1.0  0.42028  0.93081  0.15758  1.0000
  H   H16       1.0  0.92028  0.56919  0.34241  1.0000
  H   H17       1.0  0.83770  0.05253  0.03173  1.0000
  H   H18       1.0  0.33770  0.44747  0.46826  1.0000
  H   H19       1.0  0.16229  0.94748  0.96827  1.0000
  H   H20       1.0  0.66229  0.55252  0.53173  1.0000
  H   H21       1.0  0.93420  0.93345  0.82804  1.0000
  H   H22       1.0  0.43420  0.56655  0.67196  1.0000
  H   H23       1.0  0.06581  0.06656  0.17197  1.0000
  H   H24       1.0  0.56580  0.43345  0.32803  1.0000
  H   H25       1.0  0.02187  0.34482  0.85524  1.0000
  H   H26       1.0  0.52188  0.15519  0.64476  1.0000
  H   H27       1.0  0.97813  0.65519  0.14476  1.0000
  H   H28       1.0  0.47812  0.84481  0.35524  1.0000
  C   C1        1.0  0.57674  0.15442  0.07829  1.0000
  C   C2        1.0  0.07676  0.34557  0.42171  1.0000
  C   C3        1.0  0.42324  0.84558  0.92171  1.0000
  C   C4        1.0  0.92325  0.65442  0.57829  1.0000
  C   C5        1.0  0.83036  0.37571  0.06784  1.0000
  C   C6        1.0  0.33038  0.12429  0.43216  1.0000
  C   C7        1.0  0.16964  0.62429  0.93216  1.0000
  C   C8        1.0  0.66963  0.87570  0.56784  1.0000
  C   C9        1.0  0.06703  0.12979  0.83721  1.0000
  C   C10       1.0  0.56703  0.37021  0.66279  1.0000
  C   C11       1.0  0.93297  0.87022  0.16279  1.0000
  C   C12       1.0  0.43297  0.62979  0.33721  1.0000
  C   C13       1.0  0.91651  0.25008  0.00880  1.0000
  C   C14       1.0  0.41652  0.24992  0.49120  1.0000
  C   C15       1.0  0.08349  0.74993  0.99121  1.0000
  C   C16       1.0  0.58348  0.75007  0.50880  1.0000
  C   C17       1.0  0.72639  0.10857  0.87042  1.0000
  C   C18       1.0  0.22639  0.39143  0.62958  1.0000
  C   C19       1.0  0.27362  0.89144  0.12958  1.0000
  C   C20       1.0  0.77361  0.60857  0.37041  1.0000
  C   C21       1.0  0.76220  0.13587  0.00186  1.0000
  C   C22       1.0  0.26221  0.36412  0.49814  1.0000
  C   C23       1.0  0.23778  0.86413  0.99815  1.0000
  C   C24       1.0  0.73778  0.63587  0.50185  1.0000
  C   C25       1.0  0.91700  0.03678  0.82874  1.0000
  C   C26       1.0  0.41700  0.46322  0.67126  1.0000
  C   C27       1.0  0.08301  0.96322  0.17126  1.0000
  C   C28       1.0  0.58300  0.53678  0.32873  1.0000
  C   C29       1.0  0.95860  0.25470  0.87827  1.0000
  C   C30       1.0  0.45861  0.24530  0.62173  1.0000
  C   C31       1.0  0.04139  0.74530  0.12173  1.0000
  C   C32       1.0  0.54139  0.75470  0.37827  1.0000
  O   O1        1.0  0.63494  0.16333  0.18810  1.0000
  O   O2        1.0  0.13495  0.33667  0.31190  1.0000
  O   O3        1.0  0.36504  0.83667  0.81190  1.0000
  O   O4        1.0  0.86505  0.66332  0.68809  1.0000
  O   O5        1.0  0.75825  0.23214  0.82994  1.0000
  O   O6        1.0  0.25827  0.26786  0.67006  1.0000
  O   O7        1.0  0.24174  0.76786  0.17007  1.0000
  O   O8        1.0  0.74173  0.73214  0.32993  1.0000
  O   O9        1.0  0.40035  0.15307  0.04440  1.0000
  O   O10       1.0  0.90037  0.34692  0.45560  1.0000
  O   O11       1.0  0.59963  0.84693  0.95559  1.0000
  O   O12       1.0  0.09963  0.65308  0.54440  1.0000
  O   O13       1.0  0.90862  0.42271  0.16131  1.0000
  O   O14       1.0  0.40862  0.07729  0.33869  1.0000
  O   O15       1.0  0.09139  0.57729  0.83870  1.0000
  O   O16       1.0  0.59138  0.92271  0.66131  1.0000
  O   O17       1.0  0.67902  0.42893  0.02212  1.0000
  O   O18       1.0  0.17903  0.07107  0.47788  1.0000
  O   O19       1.0  0.32099  0.57108  0.97789  1.0000
  O   O20       1.0  0.82099  0.92892  0.52212  1.0000
