data_image0
_chemical_formula_structural       Gd2H22C18N8O16
_chemical_formula_sum              "Gd2 H22 C18 N8 O16"
_cell_length_a       7.04677
_cell_length_b       10.9925
_cell_length_c       11.0387
_cell_angle_alpha    110.771
_cell_angle_beta     102.07
_cell_angle_gamma    106.754

_space_group_name_H-M_alt    "P 1"
_space_group_IT_number       1

loop_
  _space_group_symop_operation_xyz
  'x, y, z'

loop_
  _atom_site_type_symbol
  _atom_site_label
  _atom_site_symmetry_multiplicity
  _atom_site_fract_x
  _atom_site_fract_y
  _atom_site_fract_z
  _atom_site_occupancy
  Gd  Gd1       1.0  0.71053  0.78337  0.68192  1.0000
  Gd  Gd2       1.0  0.28947  0.21663  0.31808  1.0000
  H   H1        1.0  0.41773  0.81863  0.39056  1.0000
  H   H2        1.0  0.58228  0.18137  0.60944  1.0000
  H   H3        1.0  0.21129  0.75789  0.96972  1.0000
  H   H4        1.0  0.78872  0.24211  0.03029  1.0000
  H   H5        1.0  0.31293  0.42534  0.05496  1.0000
  H   H6        1.0  0.68707  0.57466  0.94504  1.0000
  H   H7        1.0  0.29854  0.79366  0.70852  1.0000
  H   H8        1.0  0.70145  0.20634  0.29147  1.0000
  H   H9        1.0  0.32459  0.67719  0.75105  1.0000
  H   H10       1.0  0.67540  0.32281  0.24895  1.0000
  H   H11       1.0  0.82473  0.95203  0.53782  1.0000
  H   H12       1.0  0.17527  0.04797  0.46218  1.0000
  H   H13       1.0  0.90851  0.83264  0.47407  1.0000
  H   H14       1.0  0.09148  0.16736  0.52593  1.0000
  H   H15       1.0  0.95292  0.63826  0.53393  1.0000
  H   H16       1.0  0.04707  0.36173  0.46607  1.0000
  H   H17       1.0  0.99768  0.62690  0.67876  1.0000
  H   H18       1.0  0.00232  0.37310  0.32123  1.0000
  H   H19       1.0  0.84014  0.72128  0.89748  1.0000
  H   H20       1.0  0.15986  0.27872  0.10252  1.0000
  H   H21       1.0  0.01406  0.87833  0.99961  1.0000
  H   H22       1.0  0.98594  0.12167  0.00039  1.0000
  C   C1        1.0  0.42178  0.55576  0.33363  1.0000
  C   C2        1.0  0.57822  0.44424  0.66637  1.0000
  C   C3        1.0  0.36957  0.61503  0.23383  1.0000
  C   C4        1.0  0.63044  0.38497  0.76617  1.0000
  C   C5        1.0  0.37492  0.75249  0.28059  1.0000
  C   C6        1.0  0.62509  0.24751  0.71941  1.0000
  C   C7        1.0  0.31613  0.80278  0.18477  1.0000
  C   C8        1.0  0.68388  0.19722  0.81523  1.0000
  C   C9        1.0  0.30870  0.94558  0.23460  1.0000
  C   C10       1.0  0.69130  0.05442  0.76540  1.0000
  C   C11       1.0  0.25590  0.71742  0.04318  1.0000
  C   C12       1.0  0.74409  0.28257  0.95681  1.0000
  C   C13       1.0  0.25213  0.58016  0.99587  1.0000
  C   C14       1.0  0.74789  0.41984  0.00413  1.0000
  C   C15       1.0  0.31068  0.53064  0.09230  1.0000
  C   C16       1.0  0.68931  0.46937  0.90770  1.0000
  C   C17       1.0  0.18107  0.48560  0.84869  1.0000
  C   C18       1.0  0.81893  0.51440  0.15131  1.0000
  N   N1        1.0  0.15517  0.34849  0.79820  1.0000
  N   N2        1.0  0.84483  0.65150  0.20180  1.0000
  N   N3        1.0  0.08864  0.30079  0.66119  1.0000
  N   N4        1.0  0.91136  0.69921  0.33881  1.0000
  N   N5        1.0  0.07468  0.40347  0.62861  1.0000
  N   N6        1.0  0.92532  0.59653  0.37140  1.0000
  N   N7        1.0  0.13138  0.52183  0.74443  1.0000
  N   N8        1.0  0.86862  0.47817  0.25557  1.0000
  O   O1        1.0  0.48894  0.63711  0.46204  1.0000
  O   O2        1.0  0.51106  0.36289  0.53796  1.0000
  O   O3        1.0  0.39269  0.42545  0.28277  1.0000
  O   O4        1.0  0.60731  0.57456  0.71724  1.0000
  O   O5        1.0  0.42333  0.04102  0.35638  1.0000
  O   O6        1.0  0.57667  0.95899  0.64362  1.0000
  O   O7        1.0  0.18356  0.97282  0.15422  1.0000
  O   O8        1.0  0.81644  0.02717  0.84577  1.0000
  O   O9        1.0  0.40709  0.76545  0.74745  1.0000
  O   O10       1.0  0.59290  0.23455  0.25254  1.0000
  O   O11       1.0  0.89652  0.89602  0.56255  1.0000
  O   O12       1.0  0.10347  0.10398  0.43745  1.0000
  O   O13       1.0  0.96618  0.68678  0.63497  1.0000
  O   O14       1.0  0.03382  0.31322  0.36503  1.0000
  O   O15       1.0  0.90941  0.81480  0.90290  1.0000
  O   O16       1.0  0.09059  0.18520  0.09710  1.0000
