data_image0
_chemical_formula_structural       Dy2H22C18N8O16
_chemical_formula_sum              "Dy2 H22 C18 N8 O16"
_cell_length_a       7.06831
_cell_length_b       10.9394
_cell_length_c       10.9715
_cell_angle_alpha    110.516
_cell_angle_beta     101.892
_cell_angle_gamma    107.363

_space_group_name_H-M_alt    "P 1"
_space_group_IT_number       1

loop_
  _space_group_symop_operation_xyz
  'x, y, z'

loop_
  _atom_site_type_symbol
  _atom_site_label
  _atom_site_symmetry_multiplicity
  _atom_site_fract_x
  _atom_site_fract_y
  _atom_site_fract_z
  _atom_site_occupancy
  Dy  Dy1       1.0  0.71064  0.78259  0.68302  1.0000
  Dy  Dy2       1.0  0.28936  0.21741  0.31698  1.0000
  H   H1        1.0  0.30666  0.79829  0.70880  1.0000
  H   H2        1.0  0.69336  0.20172  0.29121  1.0000
  H   H3        1.0  0.32137  0.67673  0.74816  1.0000
  H   H4        1.0  0.67863  0.32327  0.25185  1.0000
  H   H5        1.0  0.82774  0.95306  0.54227  1.0000
  H   H6        1.0  0.17224  0.04694  0.45773  1.0000
  H   H7        1.0  0.91033  0.83352  0.47714  1.0000
  H   H8        1.0  0.08965  0.16648  0.52286  1.0000
  H   H9        1.0  0.95284  0.63984  0.53715  1.0000
  H   H10       1.0  0.04716  0.36016  0.46285  1.0000
  H   H11       1.0  0.99705  0.62855  0.68240  1.0000
  H   H12       1.0  0.00295  0.37145  0.31760  1.0000
  H   H13       1.0  0.83300  0.72013  0.89965  1.0000
  H   H14       1.0  0.16700  0.27987  0.10036  1.0000
  H   H15       1.0  0.00921  0.87829  0.99990  1.0000
  H   H16       1.0  0.99079  0.12172  0.00010  1.0000
  H   H17       1.0  0.41912  0.82015  0.39180  1.0000
  H   H18       1.0  0.58088  0.17985  0.60821  1.0000
  H   H19       1.0  0.31900  0.42706  0.05506  1.0000
  H   H20       1.0  0.68100  0.57292  0.94494  1.0000
  H   H21       1.0  0.20407  0.75687  0.96863  1.0000
  H   H22       1.0  0.79595  0.24312  0.03138  1.0000
  C   C1        1.0  0.42782  0.55747  0.33505  1.0000
  C   C2        1.0  0.57220  0.44254  0.66497  1.0000
  C   C3        1.0  0.37270  0.61639  0.23459  1.0000
  C   C4        1.0  0.62727  0.38360  0.76541  1.0000
  C   C5        1.0  0.37511  0.75359  0.28130  1.0000
  C   C6        1.0  0.62489  0.24642  0.71869  1.0000
  C   C7        1.0  0.31352  0.53171  0.09250  1.0000
  C   C8        1.0  0.68649  0.46830  0.90749  1.0000
  C   C9        1.0  0.31313  0.80315  0.18478  1.0000
  C   C10       1.0  0.68688  0.19685  0.81520  1.0000
  C   C11       1.0  0.25074  0.58030  0.99545  1.0000
  C   C12       1.0  0.74925  0.41971  0.00455  1.0000
  C   C13       1.0  0.30518  0.94621  0.23478  1.0000
  C   C14       1.0  0.69481  0.05379  0.76522  1.0000
  C   C15       1.0  0.25169  0.71716  0.04264  1.0000
  C   C16       1.0  0.74830  0.28283  0.95735  1.0000
  C   C17       1.0  0.17924  0.48533  0.84773  1.0000
  C   C18       1.0  0.82077  0.51466  0.15227  1.0000
  N   N1        1.0  0.15453  0.34787  0.79718  1.0000
  N   N2        1.0  0.84548  0.65213  0.20283  1.0000
  N   N3        1.0  0.12774  0.52134  0.74284  1.0000
  N   N4        1.0  0.87226  0.47865  0.25716  1.0000
  N   N5        1.0  0.08691  0.29977  0.65951  1.0000
  N   N6        1.0  0.91308  0.70024  0.34049  1.0000
  N   N7        1.0  0.07098  0.40246  0.62653  1.0000
  N   N8        1.0  0.92901  0.59754  0.37346  1.0000
  O   O1        1.0  0.49519  0.63938  0.46390  1.0000
  O   O2        1.0  0.50480  0.36063  0.53611  1.0000
  O   O3        1.0  0.40925  0.76569  0.74622  1.0000
  O   O4        1.0  0.59075  0.23431  0.25379  1.0000
  O   O5        1.0  0.89968  0.89690  0.56646  1.0000
  O   O6        1.0  0.10031  0.10310  0.43353  1.0000
  O   O7        1.0  0.96205  0.68739  0.63767  1.0000
  O   O8        1.0  0.03796  0.31261  0.36234  1.0000
  O   O9        1.0  0.90385  0.81337  0.90309  1.0000
  O   O10       1.0  0.09615  0.18663  0.09691  1.0000
  O   O11       1.0  0.59970  0.57312  0.71572  1.0000
  O   O12       1.0  0.40030  0.42687  0.28428  1.0000
  O   O13       1.0  0.57875  0.95731  0.64331  1.0000
  O   O14       1.0  0.42126  0.04269  0.35670  1.0000
  O   O15       1.0  0.82048  0.02656  0.84520  1.0000
  O   O16       1.0  0.17953  0.97343  0.15479  1.0000
