data_image0
_chemical_formula_structural       Cd2H22C26N18
_chemical_formula_sum              "Cd2 H22 C26 N18"
_cell_length_a       8.07569
_cell_length_b       9.98062
_cell_length_c       10.15
_cell_angle_alpha    91.0177
_cell_angle_beta     83.7829
_cell_angle_gamma    87.6514

_space_group_name_H-M_alt    "P 1"
_space_group_IT_number       1

loop_
  _space_group_symop_operation_xyz
  'x, y, z'

loop_
  _atom_site_type_symbol
  _atom_site_label
  _atom_site_symmetry_multiplicity
  _atom_site_fract_x
  _atom_site_fract_y
  _atom_site_fract_z
  _atom_site_occupancy
  Cd  Cd1       1.0  0.69852  0.41063  0.46071  1.0000
  Cd  Cd2       1.0  0.30149  0.58937  0.53929  1.0000
  H   H1        1.0  0.44817  0.24363  0.62674  1.0000
  H   H2        1.0  0.55183  0.75638  0.37326  1.0000
  H   H3        1.0  0.47446  0.21559  0.46403  1.0000
  H   H4        1.0  0.52554  0.78441  0.53597  1.0000
  H   H5        1.0  0.82017  0.93067  0.20851  1.0000
  H   H6        1.0  0.17983  0.06932  0.79149  1.0000
  H   H7        1.0  0.52935  0.07921  0.76952  1.0000
  H   H8        1.0  0.47064  0.92080  0.23048  1.0000
  H   H9        1.0  0.92724  0.88370  0.40385  1.0000
  H   H10       1.0  0.07276  0.11630  0.59615  1.0000
  H   H11       1.0  0.85647  0.99872  0.92862  1.0000
  H   H12       1.0  0.14353  0.00128  0.07138  1.0000
  H   H13       1.0  0.89080  0.76929  0.61781  1.0000
  H   H14       1.0  0.10919  0.23071  0.38220  1.0000
  H   H15       1.0  0.68994  0.86619  0.80133  1.0000
  H   H16       1.0  0.31005  0.13382  0.19867  1.0000
  H   H17       1.0  0.77219  0.46331  0.13643  1.0000
  H   H18       1.0  0.22782  0.53669  0.86356  1.0000
  H   H19       1.0  0.82319  0.43009  0.89144  1.0000
  H   H20       1.0  0.17682  0.56990  0.10856  1.0000
  H   H21       1.0  0.85927  0.20343  0.78907  1.0000
  H   H22       1.0  0.14073  0.79657  0.21093  1.0000
  C   C1        1.0  0.78745  0.24894  0.16989  1.0000
  C   C2        1.0  0.21254  0.75106  0.83010  1.0000
  C   C3        1.0  0.62933  0.09906  0.56598  1.0000
  C   C4        1.0  0.37067  0.90095  0.43402  1.0000
  C   C5        1.0  0.76632  0.10536  0.33160  1.0000
  C   C6        1.0  0.23368  0.89464  0.66839  1.0000
  C   C7        1.0  0.61560  0.03561  0.68847  1.0000
  C   C8        1.0  0.38440  0.96440  0.31153  1.0000
  C   C9        1.0  0.83523  0.92454  0.48232  1.0000
  C   C10       1.0  0.16476  0.07546  0.51769  1.0000
  C   C11       1.0  0.74304  0.04318  0.46095  1.0000
  C   C12       1.0  0.25696  0.95682  0.53905  1.0000
  C   C13       1.0  0.81487  0.11921  0.11071  1.0000
  C   C14       1.0  0.18512  0.88079  0.88929  1.0000
  C   C15       1.0  0.84087  0.09886  0.97354  1.0000
  C   C16       1.0  0.15912  0.90114  0.02646  1.0000
  C   C17       1.0  0.81750  0.86085  0.60357  1.0000
  C   C18       1.0  0.18249  0.13915  0.39643  1.0000
  C   C19       1.0  0.70697  0.91731  0.70715  1.0000
  C   C20       1.0  0.29302  0.08270  0.29285  1.0000
  C   C21       1.0  0.79181  0.36313  0.09164  1.0000
  C   C22       1.0  0.20819  0.63687  0.90835  1.0000
  C   C23       1.0  0.82152  0.34321  0.95498  1.0000
  C   C24       1.0  0.17849  0.65678  0.04501  1.0000
  C   C25       1.0  0.84381  0.21343  0.89692  1.0000
  C   C26       1.0  0.15619  0.78656  0.10307  1.0000
  N   N1        1.0  0.96220  0.61812  0.38174  1.0000
  N   N2        1.0  0.03780  0.38188  0.61826  1.0000
  N   N3        1.0  0.53334  0.21644  0.54824  1.0000
  N   N4        1.0  0.46667  0.78356  0.45175  1.0000
  N   N5        1.0  0.38929  0.41933  0.27163  1.0000
  N   N6        1.0  0.61072  0.58068  0.72838  1.0000
  N   N7        1.0  0.82905  0.58930  0.35322  1.0000
  N   N8        1.0  0.17096  0.41070  0.64678  1.0000
  N   N9        1.0  0.75617  0.23634  0.30637  1.0000
  N   N10       1.0  0.24382  0.76365  0.69363  1.0000
  N   N11       1.0  0.80312  0.03192  0.21553  1.0000
  N   N12       1.0  0.19687  0.96808  0.78447  1.0000
  N   N13       1.0  0.44374  0.46032  0.37041  1.0000
  N   N14       1.0  0.55626  0.53969  0.62958  1.0000
  N   N15       1.0  0.09323  0.65403  0.40614  1.0000
  N   N16       1.0  0.90677  0.34597  0.59387  1.0000
  N   N17       1.0  0.33761  0.37910  0.17642  1.0000
  N   N18       1.0  0.66240  0.62090  0.82357  1.0000
