data_image0
_chemical_formula_structural       Cd2H22C30S4N10
_chemical_formula_sum              "Cd2 H22 C30 S4 N10"
_cell_length_a       8.46219
_cell_length_b       9.78314
_cell_length_c       10.9701
_cell_angle_alpha    85.2622
_cell_angle_beta     76.1873
_cell_angle_gamma    70.4398

_space_group_name_H-M_alt    "P 1"
_space_group_IT_number       1

loop_
  _space_group_symop_operation_xyz
  'x, y, z'

loop_
  _atom_site_type_symbol
  _atom_site_label
  _atom_site_symmetry_multiplicity
  _atom_site_fract_x
  _atom_site_fract_y
  _atom_site_fract_z
  _atom_site_occupancy
  Cd  Cd1       1.0  0.55469  0.90531  0.74215  1.0000
  Cd  Cd2       1.0  0.44532  0.09469  0.25784  1.0000
  H   H1        1.0  0.09848  0.77828  0.47824  1.0000
  H   H2        1.0  0.90150  0.22173  0.52177  1.0000
  H   H3        1.0  0.35669  0.60078  0.53361  1.0000
  H   H4        1.0  0.64330  0.39923  0.46640  1.0000
  H   H5        1.0  0.32955  0.39198  0.67615  1.0000
  H   H6        1.0  0.67047  0.60802  0.32386  1.0000
  H   H7        1.0  0.04362  0.37125  0.76739  1.0000
  H   H8        1.0  0.95639  0.62878  0.23260  1.0000
  H   H9        1.0  0.51224  0.24563  0.92356  1.0000
  H   H10       1.0  0.48776  0.75436  0.07643  1.0000
  H   H11       1.0  0.20163  0.36515  0.01418  1.0000
  H   H12       1.0  0.79834  0.63482  0.98584  1.0000
  H   H13       1.0  0.05933  0.62776  0.97964  1.0000
  H   H14       1.0  0.94071  0.37222  0.02035  1.0000
  H   H15       1.0  0.22511  0.78125  0.85831  1.0000
  H   H16       1.0  0.77490  0.21874  0.14169  1.0000
  H   H17       1.0  0.80515  0.32151  0.77188  1.0000
  H   H18       1.0  0.19484  0.67851  0.22811  1.0000
  H   H19       1.0  0.69585  0.73067  0.53220  1.0000
  H   H20       1.0  0.30414  0.26932  0.46781  1.0000
  H   H21       1.0  0.80810  0.84316  0.48153  1.0000
  H   H22       1.0  0.19191  0.15685  0.51848  1.0000
  C   C1        1.0  0.92269  0.67444  0.58776  1.0000
  C   C2        1.0  0.07729  0.32559  0.41226  1.0000
  C   C3        1.0  0.08568  0.68811  0.54105  1.0000
  C   C4        1.0  0.91429  0.31192  0.45897  1.0000
  C   C5        1.0  0.23140  0.58734  0.57177  1.0000
  C   C6        1.0  0.76857  0.41267  0.42823  1.0000
  C   C7        1.0  0.21648  0.47086  0.65090  1.0000
  C   C8        1.0  0.78353  0.52913  0.34908  1.0000
  C   C9        1.0  0.05468  0.45850  0.70078  1.0000
  C   C10       1.0  0.94531  0.54150  0.29921  1.0000
  C   C11       1.0  0.90513  0.55951  0.67207  1.0000
  C   C12       1.0  0.09487  0.44050  0.32794  1.0000
  C   C13       1.0  0.73707  0.54766  0.73215  1.0000
  C   C14       1.0  0.26292  0.45234  0.26785  1.0000
  C   C15       1.0  0.54189  0.44819  0.83943  1.0000
  C   C16       1.0  0.45812  0.55179  0.16057  1.0000
  C   C17       1.0  0.45066  0.36061  0.90728  1.0000
  C   C18       1.0  0.54935  0.63939  0.09270  1.0000
  C   C19       1.0  0.27627  0.42924  0.95776  1.0000
  C   C20       1.0  0.72371  0.57076  0.04224  1.0000
  C   C21       1.0  0.19647  0.57878  0.94024  1.0000
  C   C22       1.0  0.80353  0.42120  0.05977  1.0000
  C   C23       1.0  0.28753  0.66597  0.87253  1.0000
  C   C24       1.0  0.71247  0.33402  0.12749  1.0000
  C   C25       1.0  0.46319  0.59894  0.82240  1.0000
  C   C26       1.0  0.53681  0.40106  0.17761  1.0000
  C   C27       1.0  0.27986  0.04267  0.01641  1.0000
  C   C28       1.0  0.72013  0.95734  0.98357  1.0000
  C   C29       1.0  0.37531  0.89255  0.50823  1.0000
  C   C30       1.0  0.62471  0.10745  0.49176  1.0000
  S   S1        1.0  0.17019  0.11395  0.15264  1.0000
  S   S2        1.0  0.82982  0.88603  0.84737  1.0000
  S   S3        1.0  0.39489  0.84751  0.36402  1.0000
  S   S4        1.0  0.60514  0.15248  0.63594  1.0000
  N   N1        1.0  0.58725  0.65707  0.75544  1.0000
  N   N2        1.0  0.41275  0.34297  0.24454  1.0000
  N   N3        1.0  0.71305  0.42025  0.78021  1.0000
  N   N4        1.0  0.28692  0.57976  0.21980  1.0000
  N   N5        1.0  0.77793  0.77665  0.55350  1.0000
  N   N6        1.0  0.22208  0.22334  0.44650  1.0000
  N   N7        1.0  0.35581  0.99039  0.91713  1.0000
  N   N8        1.0  0.64419  0.00962  0.08287  1.0000
  N   N9        1.0  0.35960  0.92754  0.61264  1.0000
  N   N10       1.0  0.64043  0.07244  0.38735  1.0000
