data_image0
_chemical_formula_structural       Ca2H32C22N4O16
_chemical_formula_sum              "Ca2 H32 C22 N4 O16"
_cell_length_a       8.20697
_cell_length_b       9.72993
_cell_length_c       9.72988
_cell_angle_alpha    78.8287
_cell_angle_beta     75.0045
_cell_angle_gamma    75.0044

_space_group_name_H-M_alt    "P 1"
_space_group_IT_number       1

loop_
  _space_group_symop_operation_xyz
  'x, y, z'

loop_
  _atom_site_type_symbol
  _atom_site_label
  _atom_site_symmetry_multiplicity
  _atom_site_fract_x
  _atom_site_fract_y
  _atom_site_fract_z
  _atom_site_occupancy
  Ca  Ca1       1.0  0.25000  0.53927  0.46073  1.0000
  Ca  Ca2       1.0  0.75000  0.46073  0.53927  1.0000
  H   H1        1.0  0.12431  0.39952  0.95099  1.0000
  H   H2        1.0  0.37569  0.04902  0.60048  1.0000
  H   H3        1.0  0.87568  0.60048  0.04902  1.0000
  H   H4        1.0  0.62431  0.95099  0.39952  1.0000
  H   H5        1.0  0.33254  0.33205  0.17306  1.0000
  H   H6        1.0  0.16746  0.82694  0.66794  1.0000
  H   H7        1.0  0.66746  0.66795  0.82694  1.0000
  H   H8        1.0  0.83254  0.17306  0.33205  1.0000
  H   H9        1.0  0.10580  0.34015  0.20414  1.0000
  H   H10       1.0  0.39420  0.79586  0.65984  1.0000
  H   H11       1.0  0.89420  0.65985  0.79586  1.0000
  H   H12       1.0  0.60580  0.20414  0.34016  1.0000
  H   H13       1.0  0.49832  0.31158  0.85745  1.0000
  H   H14       1.0  0.00169  0.14255  0.68842  1.0000
  H   H15       1.0  0.50169  0.68842  0.14255  1.0000
  H   H16       1.0  0.99831  0.85745  0.31158  1.0000
  H   H17       1.0  0.42272  0.47477  0.93254  1.0000
  H   H18       1.0  0.07727  0.06747  0.52523  1.0000
  H   H19       1.0  0.57727  0.52524  0.06746  1.0000
  H   H20       1.0  0.92273  0.93254  0.47477  1.0000
  H   H21       1.0  0.13633  0.16126  0.06173  1.0000
  H   H22       1.0  0.36367  0.93827  0.83873  1.0000
  H   H23       1.0  0.86367  0.83874  0.93827  1.0000
  H   H24       1.0  0.63634  0.06173  0.16126  1.0000
  H   H25       1.0  0.36746  0.12628  0.01973  1.0000
  H   H26       1.0  0.13255  0.98027  0.87372  1.0000
  H   H27       1.0  0.63254  0.87372  0.98028  1.0000
  H   H28       1.0  0.86746  0.01972  0.12628  1.0000
  H   H29       1.0  0.36446  0.19713  0.75649  1.0000
  H   H30       1.0  0.13554  0.24350  0.80287  1.0000
  H   H31       1.0  0.63554  0.80287  0.24351  1.0000
  H   H32       1.0  0.86446  0.75649  0.19713  1.0000
  C   C1        1.0  0.16818  0.54682  0.12867  1.0000
  C   C2        1.0  0.33182  0.87133  0.45317  1.0000
  C   C3        1.0  0.83182  0.45318  0.87133  1.0000
  C   C4        1.0  0.66818  0.12867  0.54682  1.0000
  C   C5        1.0  0.21477  0.38191  0.13267  1.0000
  C   C6        1.0  0.28524  0.86734  0.61808  1.0000
  C   C7        1.0  0.78523  0.61809  0.86734  1.0000
  C   C8        1.0  0.71477  0.13266  0.38191  1.0000
  C   C9        1.0  0.33530  0.48029  0.74279  1.0000
  C   C10       1.0  0.16470  0.25721  0.51971  1.0000
  C   C11       1.0  0.66470  0.51971  0.25721  1.0000
  C   C12       1.0  0.83530  0.74279  0.48030  1.0000
  C   C13       1.0  0.38557  0.39988  0.88211  1.0000
  C   C14       1.0  0.11443  0.11789  0.60011  1.0000
  C   C15       1.0  0.61443  0.60012  0.11789  1.0000
  C   C16       1.0  0.88557  0.88211  0.39989  1.0000
  C   C17       1.0  0.25019  0.18804  0.98322  1.0000
  C   C18       1.0  0.24981  0.01678  0.81196  1.0000
  C   C19       1.0  0.74981  0.81196  0.01678  1.0000
  C   C20       1.0  0.75019  0.98322  0.18804  1.0000
  C   C21       1.0  0.25000  0.16787  0.83213  1.0000
  C   C22       1.0  0.75000  0.83212  0.16787  1.0000
  N   N1        1.0  0.23866  0.34473  0.98553  1.0000
  N   N2        1.0  0.26134  0.01447  0.65527  1.0000
  N   N3        1.0  0.76134  0.65527  0.01447  1.0000
  N   N4        1.0  0.73866  0.98553  0.34473  1.0000
  O   O1        1.0  0.19858  0.59450  0.22896  1.0000
  O   O2        1.0  0.30142  0.77104  0.40549  1.0000
  O   O3        1.0  0.80142  0.40550  0.77104  1.0000
  O   O4        1.0  0.69858  0.22896  0.59450  1.0000
  O   O5        1.0  0.10288  0.61972  0.02578  1.0000
  O   O6        1.0  0.39712  0.97422  0.38028  1.0000
  O   O7        1.0  0.89712  0.38028  0.97422  1.0000
  O   O8        1.0  0.60288  0.02578  0.61972  1.0000
  O   O9        1.0  0.18373  0.49342  0.72770  1.0000
  O   O10       1.0  0.31627  0.27230  0.50657  1.0000
  O   O11       1.0  0.81627  0.50658  0.27230  1.0000
  O   O12       1.0  0.68372  0.72770  0.49343  1.0000
  O   O13       1.0  0.45318  0.52891  0.64881  1.0000
  O   O14       1.0  0.04682  0.35118  0.47109  1.0000
  O   O15       1.0  0.54682  0.47109  0.35118  1.0000
  O   O16       1.0  0.95318  0.64881  0.52891  1.0000
