data_image0
_chemical_formula_structural       Cd2H16C24Br4N12
_chemical_formula_sum              "Cd2 H16 C24 Br4 N12"
_cell_length_a       8.60217
_cell_length_b       11.5785
_cell_length_c       8.60528
_cell_angle_alpha    90.1424
_cell_angle_beta     93.6535
_cell_angle_gamma    101.621

_space_group_name_H-M_alt    "P 1"
_space_group_IT_number       1

loop_
  _space_group_symop_operation_xyz
  'x, y, z'

loop_
  _atom_site_type_symbol
  _atom_site_label
  _atom_site_symmetry_multiplicity
  _atom_site_fract_x
  _atom_site_fract_y
  _atom_site_fract_z
  _atom_site_occupancy
  Cd  Cd1       1.0  0.18434  0.77791  0.78264  1.0000
  Cd  Cd2       1.0  0.81566  0.22211  0.21737  1.0000
  H   H1        1.0  0.52273  0.87962  0.97950  1.0000
  H   H2        1.0  0.47724  0.12039  0.02056  1.0000
  H   H3        1.0  0.73545  0.79921  0.12924  1.0000
  H   H4        1.0  0.26452  0.20081  0.87080  1.0000
  H   H5        1.0  0.66999  0.58900  0.22320  1.0000
  H   H6        1.0  0.33003  0.41100  0.77681  1.0000
  H   H7        1.0  0.38904  0.47790  0.18439  1.0000
  H   H8        1.0  0.61099  0.52208  0.81561  1.0000
  H   H9        1.0  0.89843  0.62650  0.56258  1.0000
  H   H10       1.0  0.10159  0.37351  0.43737  1.0000
  H   H11       1.0  0.61416  0.62075  0.47164  1.0000
  H   H12       1.0  0.38586  0.37926  0.52833  1.0000
  H   H13       1.0  0.48693  0.78907  0.54782  1.0000
  H   H14       1.0  0.51306  0.21092  0.45218  1.0000
  H   H15       1.0  0.63774  0.94199  0.73431  1.0000
  H   H16       1.0  0.36225  0.05800  0.26569  1.0000
  C   C1        1.0  0.49854  0.79048  0.02548  1.0000
  C   C2        1.0  0.50144  0.20952  0.97457  1.0000
  C   C3        1.0  0.61715  0.74470  0.10817  1.0000
  C   C4        1.0  0.38284  0.25531  0.89185  1.0000
  C   C5        1.0  0.58009  0.63008  0.16273  1.0000
  C   C6        1.0  0.41994  0.36992  0.83729  1.0000
  C   C7        1.0  0.42414  0.56650  0.13954  1.0000
  C   C8        1.0  0.57588  0.43349  0.86049  1.0000
  C   C9        1.0  0.31244  0.61846  0.05553  1.0000
  C   C10       1.0  0.68756  0.38153  0.94449  1.0000
  C   C11       1.0  0.14638  0.55492  0.02597  1.0000
  C   C12       1.0  0.85363  0.44507  0.97402  1.0000
  C   C13       1.0  0.83518  0.69347  0.60067  1.0000
  C   C14       1.0  0.16483  0.30654  0.39928  1.0000
  C   C15       1.0  0.67806  0.69257  0.54723  1.0000
  C   C16       1.0  0.32194  0.30743  0.45272  1.0000
  C   C17       1.0  0.60718  0.78448  0.59130  1.0000
  C   C18       1.0  0.39282  0.21552  0.40867  1.0000
  C   C19       1.0  0.69110  0.86992  0.69646  1.0000
  C   C20       1.0  0.30888  0.13007  0.30353  1.0000
  C   C21       1.0  0.84304  0.85935  0.75429  1.0000
  C   C22       1.0  0.15695  0.14065  0.24569  1.0000
  C   C23       1.0  0.92752  0.93607  0.88261  1.0000
  C   C24       1.0  0.07247  0.06394  0.11737  1.0000
  Br  Br1       1.0  0.32694  0.98223  0.68545  1.0000
  Br  Br2       1.0  0.67304  0.01776  0.31451  1.0000
  Br  Br3       1.0  0.22098  0.59053  0.62058  1.0000
  Br  Br4       1.0  0.77900  0.40942  0.37950  1.0000
  N   N1        1.0  0.35084  0.72818  0.99672  1.0000
  N   N2        1.0  0.64915  0.27183  0.00331  1.0000
  N   N3        1.0  0.04021  0.61358  0.95724  1.0000
  N   N4        1.0  0.95981  0.38640  0.04276  1.0000
  N   N5        1.0  0.89166  0.55856  0.93054  1.0000
  N   N6        1.0  0.10836  0.44143  0.06946  1.0000
  N   N7        1.0  0.91579  0.77505  0.70195  1.0000
  N   N8        1.0  0.08422  0.22496  0.29801  1.0000
  N   N9        1.0  0.06232  0.90965  0.95050  1.0000
  N   N10       1.0  0.93768  0.09036  0.04947  1.0000
  N   N11       1.0  0.13650  0.97392  0.06906  1.0000
  N   N12       1.0  0.86351  0.02609  0.93092  1.0000
