data_image0
_chemical_formula_structural       Co2H20C28S4N8
_chemical_formula_sum              "Co2 H20 C28 S4 N8"
_cell_length_a       9.08694
_cell_length_b       9.35272
_cell_length_c       10.1696
_cell_angle_alpha    115.077
_cell_angle_beta     110.346
_cell_angle_gamma    92.4994

_space_group_name_H-M_alt    "P 1"
_space_group_IT_number       1

loop_
  _space_group_symop_operation_xyz
  'x, y, z'

loop_
  _atom_site_type_symbol
  _atom_site_label
  _atom_site_symmetry_multiplicity
  _atom_site_fract_x
  _atom_site_fract_y
  _atom_site_fract_z
  _atom_site_occupancy
  Co  Co1       1.0  0.00000  0.50000  0.00000  1.0000
  Co  Co2       1.0  0.50000  0.00000  0.50000  1.0000
  H   H1        1.0  0.34348  0.51644  0.15679  1.0000
  H   H2        1.0  0.65653  0.48355  0.84322  1.0000
  H   H3        1.0  0.52196  0.32512  0.14915  1.0000
  H   H4        1.0  0.47804  0.67487  0.85085  1.0000
  H   H5        1.0  0.10586  0.94051  0.78327  1.0000
  H   H6        1.0  0.89413  0.05949  0.21672  1.0000
  H   H7        1.0  0.94320  0.14851  0.80847  1.0000
  H   H8        1.0  0.05680  0.85149  0.19152  1.0000
  H   H9        1.0  0.35567  0.86672  0.85692  1.0000
  H   H10       1.0  0.64432  0.13327  0.14307  1.0000
  H   H11       1.0  0.63954  0.87139  0.72101  1.0000
  H   H12       1.0  0.36045  0.12862  0.27899  1.0000
  H   H13       1.0  0.82908  0.69286  0.74911  1.0000
  H   H14       1.0  0.17091  0.30715  0.25089  1.0000
  H   H15       1.0  0.86013  0.64378  0.31722  1.0000
  H   H16       1.0  0.13987  0.35622  0.68278  1.0000
  H   H17       1.0  0.67534  0.82790  0.31065  1.0000
  H   H18       1.0  0.32467  0.17210  0.68936  1.0000
  H   H19       1.0  0.00048  0.53355  0.66185  1.0000
  H   H20       1.0  0.99952  0.46645  0.33816  1.0000
  C   C1        1.0  0.29535  0.38771  0.07625  1.0000
  C   C2        1.0  0.70465  0.61229  0.92375  1.0000
  C   C3        1.0  0.39426  0.27867  0.07141  1.0000
  C   C4        1.0  0.60574  0.72132  0.92858  1.0000
  C   C5        1.0  0.32951  0.11208  0.96579  1.0000
  C   C6        1.0  0.67049  0.88791  0.03420  1.0000
  C   C7        1.0  0.16357  0.06698  0.86873  1.0000
  C   C8        1.0  0.83642  0.93302  0.13126  1.0000
  C   C9        1.0  0.07160  0.18248  0.88146  1.0000
  C   C10       1.0  0.92840  0.81752  0.11854  1.0000
  C   C11       1.0  0.42195  0.98793  0.95227  1.0000
  C   C12       1.0  0.57804  0.01206  0.04772  1.0000
  C   C13       1.0  0.69190  0.81923  0.63491  1.0000
  C   C14       1.0  0.30810  0.18077  0.36509  1.0000
  C   C15       1.0  0.79718  0.71873  0.64909  1.0000
  C   C16       1.0  0.20282  0.28128  0.35092  1.0000
  C   C17       1.0  0.86155  0.64920  0.53483  1.0000
  C   C18       1.0  0.13845  0.35080  0.46518  1.0000
  C   C19       1.0  0.81504  0.69019  0.41012  1.0000
  C   C20       1.0  0.18496  0.30981  0.58988  1.0000
  C   C21       1.0  0.71095  0.79334  0.40475  1.0000
  C   C22       1.0  0.28905  0.20667  0.59525  1.0000
  C   C23       1.0  0.96961  0.54300  0.55282  1.0000
  C   C24       1.0  0.03039  0.45700  0.44719  1.0000
  C   C25       1.0  0.19086  0.69648  0.35453  1.0000
  C   C26       1.0  0.80914  0.30352  0.64547  1.0000
  C   C27       1.0  0.67832  0.20708  0.85467  1.0000
  C   C28       1.0  0.32169  0.79292  0.14533  1.0000
  S   S1        1.0  0.29960  0.82041  0.53956  1.0000
  S   S2        1.0  0.70040  0.17959  0.46044  1.0000
  S   S3        1.0  0.79798  0.32240  0.03924  1.0000
  S   S4        1.0  0.20203  0.67760  0.96077  1.0000
  N   N1        1.0  0.13503  0.34197  0.98398  1.0000
  N   N2        1.0  0.86498  0.65803  0.01602  1.0000
  N   N3        1.0  0.64831  0.85780  0.51472  1.0000
  N   N4        1.0  0.35169  0.14221  0.48528  1.0000
  N   N5        1.0  0.11180  0.60725  0.21850  1.0000
  N   N6        1.0  0.88820  0.39275  0.78150  1.0000
  N   N7        1.0  0.59543  0.12528  0.71828  1.0000
  N   N8        1.0  0.40458  0.87472  0.28173  1.0000
