data_image0
_chemical_formula_structural       Cd2H34C40N6O8
_chemical_formula_sum              "Cd2 H34 C40 N6 O8"
_cell_length_a       7.5419
_cell_length_b       10.6788
_cell_length_c       12.1669
_cell_angle_alpha    102.2
_cell_angle_beta     107.353
_cell_angle_gamma    90.9689

_space_group_name_H-M_alt    "P 1"
_space_group_IT_number       1

loop_
  _space_group_symop_operation_xyz
  'x, y, z'

loop_
  _atom_site_type_symbol
  _atom_site_label
  _atom_site_symmetry_multiplicity
  _atom_site_fract_x
  _atom_site_fract_y
  _atom_site_fract_z
  _atom_site_occupancy
  Cd  Cd1       1.0  0.28984  0.53311  0.06162  1.0000
  Cd  Cd2       1.0  0.71016  0.46689  0.93838  1.0000
  H   H1        1.0  0.12685  0.94554  0.11220  1.0000
  H   H2        1.0  0.87315  0.05446  0.88780  1.0000
  H   H3        1.0  0.97701  0.15180  0.13998  1.0000
  H   H4        1.0  0.02299  0.84820  0.86003  1.0000
  H   H5        1.0  0.65346  0.14888  0.15168  1.0000
  H   H6        1.0  0.34654  0.85111  0.84832  1.0000
  H   H7        1.0  0.48073  0.94116  0.13473  1.0000
  H   H8        1.0  0.51927  0.05883  0.86527  1.0000
  H   H9        1.0  0.03322  0.50623  0.25210  1.0000
  H   H10       1.0  0.96678  0.49377  0.74790  1.0000
  H   H11       1.0  0.35396  0.20158  0.35199  1.0000
  H   H12       1.0  0.64604  0.79843  0.64801  1.0000
  H   H13       1.0  0.46048  0.28929  0.17715  1.0000
  H   H14       1.0  0.53952  0.71071  0.82286  1.0000
  H   H15       1.0  0.80681  0.39603  0.30315  1.0000
  H   H16       1.0  0.19319  0.60398  0.69685  1.0000
  H   H17       1.0  0.62932  0.34598  0.43177  1.0000
  H   H18       1.0  0.37068  0.65402  0.56823  1.0000
  H   H19       1.0  0.12094  0.22224  0.65393  1.0000
  H   H20       1.0  0.87905  0.77776  0.34607  1.0000
  H   H21       1.0  0.30181  0.27636  0.52841  1.0000
  H   H22       1.0  0.69818  0.72364  0.47159  1.0000
  H   H23       1.0  0.83647  0.18609  0.68637  1.0000
  H   H24       1.0  0.16353  0.81390  0.31363  1.0000
  H   H25       1.0  0.67649  0.30420  0.65781  1.0000
  H   H26       1.0  0.32351  0.69580  0.34219  1.0000
  H   H27       1.0  0.76922  0.97382  0.53413  1.0000
  H   H28       1.0  0.23078  0.02618  0.46587  1.0000
  H   H29       1.0  0.73879  0.05462  0.41661  1.0000
  H   H30       1.0  0.26120  0.94538  0.58339  1.0000
  H   H31       1.0  0.44039  0.15904  0.65712  1.0000
  H   H32       1.0  0.55961  0.84096  0.34288  1.0000
  H   H33       1.0  0.58876  0.03286  0.67242  1.0000
  H   H34       1.0  0.41124  0.96713  0.32757  1.0000
  C   C1        1.0  0.98343  0.70723  0.08751  1.0000
  C   C2        1.0  0.01657  0.29277  0.91248  1.0000
  C   C3        1.0  0.88865  0.82857  0.10556  1.0000
  C   C4        1.0  0.11136  0.17143  0.89444  1.0000
  C   C5        1.0  0.98543  0.94656  0.11773  1.0000
  C   C6        1.0  0.01457  0.05344  0.88226  1.0000
  C   C7        1.0  0.90211  0.06139  0.13430  1.0000
  C   C8        1.0  0.09789  0.93861  0.86570  1.0000
  C   C9        1.0  0.72027  0.05945  0.14059  1.0000
  C   C10       1.0  0.27974  0.94054  0.85941  1.0000
  C   C11       1.0  0.62319  0.94326  0.13063  1.0000
  C   C12       1.0  0.37681  0.05674  0.86937  1.0000
  C   C13       1.0  0.70553  0.82710  0.11247  1.0000
  C   C14       1.0  0.29447  0.17289  0.88753  1.0000
  C   C15       1.0  0.58547  0.70720  0.09761  1.0000
  C   C16       1.0  0.41453  0.29279  0.90238  1.0000
  C   C17       1.0  0.13565  0.43602  0.25548  1.0000
  C   C18       1.0  0.86435  0.56399  0.74452  1.0000
  C   C19       1.0  0.30528  0.27673  0.30537  1.0000
  C   C20       1.0  0.69472  0.72328  0.69464  1.0000
  C   C21       1.0  0.35768  0.32078  0.22071  1.0000
  C   C22       1.0  0.64232  0.67923  0.77930  1.0000
  C   C23       1.0  0.06404  0.33457  0.40581  1.0000
  C   C24       1.0  0.93596  0.66543  0.59419  1.0000
  C   C25       1.0  0.87606  0.35853  0.38040  1.0000
  C   C26       1.0  0.12394  0.64147  0.61961  1.0000
  C   C27       1.0  0.77666  0.33005  0.45301  1.0000
  C   C28       1.0  0.22334  0.66996  0.54700  1.0000
  C   C29       1.0  0.85972  0.27486  0.54878  1.0000
  C   C30       1.0  0.14028  0.72514  0.45122  1.0000
  C   C31       1.0  0.05070  0.25937  0.57672  1.0000
  C   C32       1.0  0.94930  0.74062  0.42328  1.0000
  C   C33       1.0  0.15350  0.28996  0.50646  1.0000
  C   C34       1.0  0.84650  0.71004  0.49354  1.0000
  C   C35       1.0  0.74354  0.22585  0.61496  1.0000
  C   C36       1.0  0.25646  0.77415  0.38504  1.0000
  C   C37       1.0  0.66627  0.01985  0.47188  1.0000
  C   C38       1.0  0.33372  0.98015  0.52812  1.0000
  C   C39       1.0  0.49262  0.07872  0.60644  1.0000
  C   C40       1.0  0.50738  0.92128  0.39356  1.0000
  N   N1        1.0  0.25174  0.41993  0.19098  1.0000
  N   N2        1.0  0.74826  0.58007  0.80903  1.0000
  N   N3        1.0  0.16470  0.35107  0.32708  1.0000
  N   N4        1.0  0.83530  0.64893  0.67293  1.0000
  N   N5        1.0  0.59412  0.12813  0.53674  1.0000
  N   N6        1.0  0.40588  0.87187  0.46326  1.0000
  O   O1        1.0  0.13411  0.71334  0.06124  1.0000
  O   O2        1.0  0.86589  0.28666  0.93875  1.0000
  O   O3        1.0  0.91060  0.60471  0.10143  1.0000
  O   O4        1.0  0.08941  0.39529  0.89857  1.0000
  O   O5        1.0  0.50501  0.64010  0.99168  1.0000
  O   O6        1.0  0.49500  0.35990  0.00832  1.0000
  O   O7        1.0  0.55153  0.68323  0.18693  1.0000
  O   O8        1.0  0.44847  0.31676  0.81307  1.0000
