data_image0
_chemical_formula_structural       Ni3H10C10N2Cl6
_chemical_formula_sum              "Ni3 H10 C10 N2 Cl6"
_cell_length_a       3.50034
_cell_length_b       9.65371
_cell_length_c       12.4955
_cell_angle_alpha    68.4574
_cell_angle_beta     90.3029
_cell_angle_gamma    79.0624

_space_group_name_H-M_alt    "P 1"
_space_group_IT_number       1

loop_
  _space_group_symop_operation_xyz
  'x, y, z'

loop_
  _atom_site_type_symbol
  _atom_site_label
  _atom_site_symmetry_multiplicity
  _atom_site_fract_x
  _atom_site_fract_y
  _atom_site_fract_z
  _atom_site_occupancy
  Ni  Ni1       1.0  0.46013  0.08152  0.21648  1.0000
  Ni  Ni2       1.0  0.53987  0.91848  0.78352  1.0000
  Ni  Ni3       1.0  1.00000  0.00000  1.00000  1.0000
  H   H1        1.0  0.31124  0.41962  0.10250  1.0000
  H   H2        1.0  0.68876  0.58038  0.89750  1.0000
  H   H3        1.0  0.41650  0.11395  0.44105  1.0000
  H   H4        1.0  0.58349  0.88605  0.55895  1.0000
  H   H5        1.0  0.20392  0.64122  0.16381  1.0000
  H   H6        1.0  0.79609  0.35878  0.83619  1.0000
  H   H7        1.0  0.31630  0.32011  0.51722  1.0000
  H   H8        1.0  0.68371  0.67988  0.48278  1.0000
  H   H9        1.0  0.20405  0.59506  0.37447  1.0000
  H   H10       1.0  0.79596  0.40494  0.62554  1.0000
  C   C1        1.0  0.30988  0.40348  0.19344  1.0000
  C   C2        1.0  0.69012  0.59652  0.80656  1.0000
  C   C3        1.0  0.36933  0.23240  0.38284  1.0000
  C   C4        1.0  0.63067  0.76760  0.61716  1.0000
  C   C5        1.0  0.25019  0.52630  0.22833  1.0000
  C   C6        1.0  0.74981  0.47370  0.77167  1.0000
  C   C7        1.0  0.31154  0.34964  0.42428  1.0000
  C   C8        1.0  0.68846  0.65037  0.57571  1.0000
  C   C9        1.0  0.25071  0.49953  0.34585  1.0000
  C   C10       1.0  0.74930  0.50047  0.65415  1.0000
  N   N1        1.0  0.36894  0.25836  0.26944  1.0000
  N   N2        1.0  0.63105  0.74164  0.73056  1.0000
  Cl  Cl1       1.0  0.89761  0.19905  0.07304  1.0000
  Cl  Cl2       1.0  0.10238  0.80096  0.92696  1.0000
  Cl  Cl3       1.0  0.56280  0.88440  0.13429  1.0000
  Cl  Cl4       1.0  0.43719  0.11560  0.86571  1.0000
  Cl  Cl5       1.0  0.02949  0.95205  0.34220  1.0000
  Cl  Cl6       1.0  0.97050  0.04795  0.65780  1.0000
