data_image0
_chemical_formula_structural       Cu4H20C20N4Cl8
_chemical_formula_sum              "Cu4 H20 C20 N4 Cl8"
_cell_length_a       3.78164
_cell_length_b       11.8997
_cell_length_c       14.9201
_cell_angle_alpha    90.002
_cell_angle_beta     89.9991
_cell_angle_gamma    100.293

_space_group_name_H-M_alt    "P 1"
_space_group_IT_number       1

loop_
  _space_group_symop_operation_xyz
  'x, y, z'

loop_
  _atom_site_type_symbol
  _atom_site_label
  _atom_site_symmetry_multiplicity
  _atom_site_fract_x
  _atom_site_fract_y
  _atom_site_fract_z
  _atom_site_occupancy
  Cu  Cu1       1.0  0.79798  0.91093  0.58305  1.0000
  Cu  Cu2       1.0  0.20201  0.58908  0.08305  1.0000
  Cu  Cu3       1.0  0.20201  0.08908  0.41695  1.0000
  Cu  Cu4       1.0  0.79797  0.41092  0.91695  1.0000
  H   H1        1.0  0.63864  0.07943  0.71387  1.0000
  H   H2        1.0  0.36136  0.42059  0.21385  1.0000
  H   H3        1.0  0.36136  0.92057  0.28613  1.0000
  H   H4        1.0  0.63864  0.57942  0.78614  1.0000
  H   H5        1.0  0.95197  0.76452  0.73016  1.0000
  H   H6        1.0  0.04804  0.73550  0.23016  1.0000
  H   H7        1.0  0.04805  0.23549  0.26984  1.0000
  H   H8        1.0  0.95196  0.26450  0.76985  1.0000
  H   H9        1.0  0.59611  0.09505  0.88015  1.0000
  H   H10       1.0  0.40387  0.40495  0.38013  1.0000
  H   H11       1.0  0.40389  0.90496  0.11985  1.0000
  H   H12       1.0  0.59616  0.59503  0.61986  1.0000
  H   H13       1.0  0.91146  0.76361  0.89849  1.0000
  H   H14       1.0  0.08850  0.73639  0.39850  1.0000
  H   H15       1.0  0.08856  0.23639  0.10151  1.0000
  H   H16       1.0  0.91150  0.26360  0.60151  1.0000
  H   H17       1.0  0.72785  0.92991  0.97526  1.0000
  H   H18       1.0  0.27209  0.57009  0.47525  1.0000
  H   H19       1.0  0.27215  0.07010  0.02475  1.0000
  H   H20       1.0  0.72792  0.42989  0.52475  1.0000
  C   C1        1.0  0.69960  0.01231  0.75775  1.0000
  C   C2        1.0  0.30041  0.48770  0.25773  1.0000
  C   C3        1.0  0.30042  0.98770  0.24226  1.0000
  C   C4        1.0  0.69956  0.51230  0.74226  1.0000
  C   C5        1.0  0.86883  0.83430  0.76706  1.0000
  C   C6        1.0  0.13116  0.66571  0.26706  1.0000
  C   C7        1.0  0.13118  0.16571  0.23295  1.0000
  C   C8        1.0  0.86881  0.33428  0.73294  1.0000
  C   C9        1.0  0.67536  0.01955  0.85056  1.0000
  C   C10       1.0  0.32460  0.48046  0.35054  1.0000
  C   C11       1.0  0.32463  0.98046  0.14944  1.0000
  C   C12       1.0  0.67541  0.51953  0.64946  1.0000
  C   C13       1.0  0.84911  0.83532  0.86005  1.0000
  C   C14       1.0  0.15084  0.66469  0.36004  1.0000
  C   C15       1.0  0.15088  0.16468  0.13995  1.0000
  C   C16       1.0  0.84916  0.33530  0.63996  1.0000
  C   C17       1.0  0.74894  0.92912  0.90245  1.0000
  C   C18       1.0  0.25103  0.57088  0.40244  1.0000
  C   C19       1.0  0.25107  0.07089  0.09756  1.0000
  C   C20       1.0  0.74895  0.42911  0.59755  1.0000
  N   N1        1.0  0.79386  0.92118  0.71690  1.0000
  N   N2        1.0  0.20611  0.57884  0.21688  1.0000
  N   N3        1.0  0.20612  0.07882  0.28310  1.0000
  N   N4        1.0  0.79388  0.42116  0.78311  1.0000
  Cl  Cl1       1.0  0.30199  0.77033  0.58310  1.0000
  Cl  Cl2       1.0  0.69804  0.72967  0.08310  1.0000
  Cl  Cl3       1.0  0.69802  0.22967  0.41690  1.0000
  Cl  Cl4       1.0  0.30196  0.27033  0.91690  1.0000
  Cl  Cl5       1.0  0.21221  0.07980  0.57206  1.0000
  Cl  Cl6       1.0  0.78781  0.42020  0.07206  1.0000
  Cl  Cl7       1.0  0.78779  0.92019  0.42794  1.0000
  Cl  Cl8       1.0  0.21220  0.57981  0.92793  1.0000
