data_image0
_chemical_formula_structural       Cu2H10C10N2Cl4
_chemical_formula_sum              "Cu2 H10 C10 N2 Cl4"
_cell_length_a       3.7547
_cell_length_b       8.63574
_cell_length_c       10.666
_cell_angle_alpha    103.334
_cell_angle_beta     93.2729
_cell_angle_gamma    98.1994

_space_group_name_H-M_alt    "P 1"
_space_group_IT_number       1

loop_
  _space_group_symop_operation_xyz
  'x, y, z'

loop_
  _atom_site_type_symbol
  _atom_site_label
  _atom_site_symmetry_multiplicity
  _atom_site_fract_x
  _atom_site_fract_y
  _atom_site_fract_z
  _atom_site_occupancy
  Cu  Cu1       1.0  0.36138  0.97927  0.14686  1.0000
  Cu  Cu2       1.0  0.63863  0.02073  0.85314  1.0000
  H   H1        1.0  0.01584  0.63978  0.06812  1.0000
  H   H2        1.0  0.98416  0.36022  0.93188  1.0000
  H   H3        1.0  0.57933  0.93608  0.40190  1.0000
  H   H4        1.0  0.42070  0.06391  0.59810  1.0000
  H   H5        1.0  0.90574  0.40535  0.17258  1.0000
  H   H6        1.0  0.09425  0.59465  0.82742  1.0000
  H   H7        1.0  0.48373  0.72053  0.52258  1.0000
  H   H8        1.0  0.51628  0.27947  0.47742  1.0000
  H   H9        1.0  0.14261  0.44446  0.40193  1.0000
  H   H10       1.0  0.85738  0.55554  0.59807  1.0000
  C   C1        1.0  0.11543  0.64974  0.16802  1.0000
  C   C2        1.0  0.88456  0.35027  0.83198  1.0000
  C   C3        1.0  0.42735  0.81728  0.35635  1.0000
  C   C4        1.0  0.57265  0.18274  0.64365  1.0000
  C   C5        1.0  0.05449  0.52150  0.22660  1.0000
  C   C6        1.0  0.94549  0.47849  0.77341  1.0000
  C   C7        1.0  0.37496  0.69493  0.42164  1.0000
  C   C8        1.0  0.62503  0.30506  0.57837  1.0000
  C   C9        1.0  0.18663  0.54461  0.35548  1.0000
  C   C10       1.0  0.81337  0.45542  0.64451  1.0000
  N   N1        1.0  0.29944  0.79472  0.23195  1.0000
  N   N2        1.0  0.70055  0.20528  0.76805  1.0000
  Cl  Cl1       1.0  0.60966  0.82852  0.97379  1.0000
  Cl  Cl2       1.0  0.39034  0.17147  0.02620  1.0000
  Cl  Cl3       1.0  0.00758  0.11573  0.28511  1.0000
  Cl  Cl4       1.0  0.99242  0.88427  0.71489  1.0000
