data_image0
_chemical_formula_structural       Cu3H10C10N2Cl6
_chemical_formula_sum              "Cu3 H10 C10 N2 Cl6"
_cell_length_a       3.78814
_cell_length_b       9.12187
_cell_length_c       12.6028
_cell_angle_alpha    67.7095
_cell_angle_beta     81.9443
_cell_angle_gamma    83.1564

_space_group_name_H-M_alt    "P 1"
_space_group_IT_number       1

loop_
  _space_group_symop_operation_xyz
  'x, y, z'

loop_
  _atom_site_type_symbol
  _atom_site_label
  _atom_site_symmetry_multiplicity
  _atom_site_fract_x
  _atom_site_fract_y
  _atom_site_fract_z
  _atom_site_occupancy
  Cu  Cu1       1.0  0.50200  0.99978  0.49839  1.0000
  Cu  Cu2       1.0  0.95447  0.93712  0.26885  1.0000
  Cu  Cu3       1.0  0.03795  0.06371  0.73072  1.0000
  H   H1        1.0  0.89202  0.87660  0.05915  1.0000
  H   H2        1.0  0.10733  0.12276  0.93987  1.0000
  H   H3        1.0  0.06405  0.65658  0.98871  1.0000
  H   H4        1.0  0.93982  0.34209  0.01133  1.0000
  H   H5        1.0  0.32893  0.39357  0.12585  1.0000
  H   H6        1.0  0.67579  0.60612  0.87509  1.0000
  H   H7        1.0  0.40380  0.37253  0.32530  1.0000
  H   H8        1.0  0.59620  0.62870  0.67581  1.0000
  H   H9        1.0  0.21892  0.60663  0.38199  1.0000
  H   H10       1.0  0.77570  0.39486  0.61810  1.0000
  C   C1        1.0  0.10527  0.63803  0.07683  1.0000
  C   C2        1.0  0.89701  0.36130  0.92325  1.0000
  C   C3        1.0  0.01054  0.76361  0.11474  1.0000
  C   C4        1.0  0.98925  0.23615  0.88477  1.0000
  C   C5        1.0  0.19098  0.61138  0.29594  1.0000
  C   C6        1.0  0.80605  0.38964  0.70411  1.0000
  C   C7        1.0  0.29300  0.48191  0.26350  1.0000
  C   C8        1.0  0.70694  0.51885  0.73710  1.0000
  C   C9        1.0  0.25096  0.49503  0.15197  1.0000
  C   C10       1.0  0.75160  0.50480  0.84863  1.0000
  N   N1        1.0  0.05402  0.75010  0.22224  1.0000
  N   N2        1.0  0.94304  0.25040  0.77729  1.0000
  Cl  Cl1       1.0  0.89608  0.12960  0.34960  1.0000
  Cl  Cl2       1.0  0.10497  0.87253  0.64912  1.0000
  Cl  Cl3       1.0  0.60173  0.79070  0.43873  1.0000
  Cl  Cl4       1.0  0.40017  0.20686  0.56233  1.0000
  Cl  Cl5       1.0  0.41870  0.06508  0.14439  1.0000
  Cl  Cl6       1.0  0.58270  0.93297  0.85630  1.0000
