data_image0
_chemical_formula_structural       Cu2P2H26C32S2N4O12
_chemical_formula_sum              "Cu2 P2 H26 C32 S2 N4 O12"
_cell_length_a       9.48271
_cell_length_b       9.48277
_cell_length_c       10.4342
_cell_angle_alpha    75.3062
_cell_angle_beta     75.3062
_cell_angle_gamma    71.3166

_space_group_name_H-M_alt    "P 1"
_space_group_IT_number       1

loop_
  _space_group_symop_operation_xyz
  'x, y, z'

loop_
  _atom_site_type_symbol
  _atom_site_label
  _atom_site_symmetry_multiplicity
  _atom_site_fract_x
  _atom_site_fract_y
  _atom_site_fract_z
  _atom_site_occupancy
  Cu  Cu1       1.0  0.23826  0.76174  0.50000  1.0000
  Cu  Cu2       1.0  0.29130  0.70870  0.00000  1.0000
  P   P1        1.0  0.11914  0.61631  0.31298  1.0000
  P   P2        1.0  0.38368  0.88086  0.68702  1.0000
  H   H1        1.0  0.21763  0.39264  0.26082  1.0000
  H   H2        1.0  0.60735  0.78237  0.73918  1.0000
  H   H3        1.0  0.61661  0.99184  0.32066  1.0000
  H   H4        1.0  0.00816  0.38340  0.67933  1.0000
  H   H5        1.0  0.86777  0.87091  0.39035  1.0000
  H   H6        1.0  0.12909  0.13224  0.60964  1.0000
  H   H7        1.0  0.96362  0.53556  0.14473  1.0000
  H   H8        1.0  0.46443  0.03638  0.85527  1.0000
  H   H9        1.0  0.71586  0.65594  0.07568  1.0000
  H   H10       1.0  0.34405  0.28414  0.92432  1.0000
  H   H11       1.0  0.92797  0.82344  0.65083  1.0000
  H   H12       1.0  0.17655  0.07203  0.34916  1.0000
  H   H13       1.0  0.69346  0.04414  0.65580  1.0000
  H   H14       1.0  0.95585  0.30655  0.34419  1.0000
  H   H15       1.0  0.50707  0.20424  0.52101  1.0000
  H   H16       1.0  0.79578  0.49292  0.47899  1.0000
  H   H17       1.0  0.28872  0.43521  0.52119  1.0000
  H   H18       1.0  0.56481  0.71128  0.47882  1.0000
  H   H19       1.0  0.18815  0.97930  0.12141  1.0000
  H   H20       1.0  0.02069  0.81185  0.87860  1.0000
  H   H21       1.0  0.97298  0.21561  0.11566  1.0000
  H   H22       1.0  0.78439  0.02702  0.88434  1.0000
  H   H23       1.0  0.69920  0.28634  0.79664  1.0000
  H   H24       1.0  0.71366  0.30081  0.20337  1.0000
  H   H25       1.0  0.47184  0.51148  0.80635  1.0000
  H   H26       1.0  0.48851  0.52816  0.19366  1.0000
  C   C1        1.0  0.65106  0.82950  0.19562  1.0000
  C   C2        1.0  0.17050  0.34894  0.80438  1.0000
  C   C3        1.0  0.69361  0.89141  0.28343  1.0000
  C   C4        1.0  0.10859  0.30640  0.71656  1.0000
  C   C5        1.0  0.83379  0.82365  0.32216  1.0000
  C   C6        1.0  0.17634  0.16622  0.67784  1.0000
  C   C7        1.0  0.93192  0.69396  0.27389  1.0000
  C   C8        1.0  0.30603  0.06808  0.72611  1.0000
  C   C9        1.0  0.88692  0.63242  0.18725  1.0000
  C   C10       1.0  0.36757  0.11308  0.81275  1.0000
  C   C11       1.0  0.74712  0.70048  0.14755  1.0000
  C   C12       1.0  0.29952  0.25288  0.85244  1.0000
  C   C13       1.0  0.92623  0.93317  0.58456  1.0000
  C   C14       1.0  0.06682  0.07377  0.41544  1.0000
  C   C15       1.0  0.79814  0.05654  0.58690  1.0000
  C   C16       1.0  0.94344  0.20186  0.41309  1.0000
  C   C17       1.0  0.80530  0.19469  0.50000  1.0000
  C   C18       1.0  0.67181  0.32819  0.50000  1.0000
  C   C19       1.0  0.52610  0.31386  0.51236  1.0000
  C   C20       1.0  0.68615  0.47389  0.48765  1.0000
  C   C21       1.0  0.40309  0.44204  0.51210  1.0000
  C   C22       1.0  0.55798  0.59691  0.48792  1.0000
  C   C23       1.0  0.09796  0.99771  0.06689  1.0000
  C   C24       1.0  0.00229  0.90204  0.93312  1.0000
  C   C25       1.0  0.97553  0.12610  0.06662  1.0000
  C   C26       1.0  0.87390  0.02447  0.93339  1.0000
  C   C27       1.0  0.85912  0.14088  0.00000  1.0000
  C   C28       1.0  0.72615  0.27384  0.00000  1.0000
  C   C29       1.0  0.65574  0.33483  0.88768  1.0000
  C   C30       1.0  0.66518  0.34426  0.11232  1.0000
  C   C31       1.0  0.53029  0.46019  0.89121  1.0000
  C   C32       1.0  0.53981  0.46971  0.10879  1.0000
  S   S1        1.0  0.47274  0.91912  0.14401  1.0000
  S   S2        1.0  0.08088  0.52726  0.85599  1.0000
  N   N1        1.0  0.05773  0.94226  0.49999  1.0000
  N   N2        1.0  0.41859  0.58143  0.50000  1.0000
  N   N3        1.0  0.11135  0.88865  0.00000  1.0000
  N   N4        1.0  0.47326  0.52674  0.00000  1.0000
  O   O1        1.0  0.35742  0.89166  0.26491  1.0000
  O   O2        1.0  0.10834  0.64259  0.73509  1.0000
  O   O3        1.0  0.47502  0.84313  0.03606  1.0000
  O   O4        1.0  0.15688  0.52498  0.96393  1.0000
  O   O5        1.0  0.46735  0.07994  0.09858  1.0000
  O   O6        1.0  0.92005  0.53265  0.90142  1.0000
  O   O7        1.0  0.14821  0.43325  0.33786  1.0000
  O   O8        1.0  0.56675  0.85179  0.66214  1.0000
  O   O9        1.0  0.24085  0.65805  0.19724  1.0000
  O   O10       1.0  0.34194  0.75915  0.80277  1.0000
  O   O11       1.0  0.11551  0.65596  0.44608  1.0000
  O   O12       1.0  0.34403  0.88450  0.55392  1.0000
