data_image0
_chemical_formula_structural       Na2H12C6N18O6
_chemical_formula_sum              "Na2 H12 C6 N18 O6"
_cell_length_a       3.58295
_cell_length_b       10.5691
_cell_length_c       13.261
_cell_angle_alpha    103.604
_cell_angle_beta     89.9993
_cell_angle_gamma    89.999

_space_group_name_H-M_alt    "P 1"
_space_group_IT_number       1

loop_
  _space_group_symop_operation_xyz
  'x, y, z'

loop_
  _atom_site_type_symbol
  _atom_site_label
  _atom_site_symmetry_multiplicity
  _atom_site_fract_x
  _atom_site_fract_y
  _atom_site_fract_z
  _atom_site_occupancy
  Na  Na1       1.0  0.64251  0.42148  0.42418  1.0000
  Na  Na2       1.0  0.35748  0.92150  0.92420  1.0000
  H   H1        1.0  0.15027  0.21910  0.29648  1.0000
  H   H2        1.0  0.84976  0.71914  0.79649  1.0000
  H   H3        1.0  0.02168  0.21294  0.40961  1.0000
  H   H4        1.0  0.97834  0.71296  0.90962  1.0000
  H   H5        1.0  0.21451  0.61454  0.37723  1.0000
  H   H6        1.0  0.78547  0.11457  0.87725  1.0000
  H   H7        1.0  0.17576  0.66171  0.49987  1.0000
  H   H8        1.0  0.82420  0.16173  0.99989  1.0000
  H   H9        1.0  0.14579  0.48274  0.82701  1.0000
  H   H10       1.0  0.85423  0.98271  0.32703  1.0000
  H   H11       1.0  0.55441  0.41172  0.99752  1.0000
  H   H12       1.0  0.44559  0.91172  0.49755  1.0000
  C   C1        1.0  0.19175  0.77900  0.14030  1.0000
  C   C2        1.0  0.80824  0.27900  0.64031  1.0000
  C   C3        1.0  0.43057  0.55054  0.13271  1.0000
  C   C4        1.0  0.56943  0.05055  0.63273  1.0000
  C   C5        1.0  0.29276  0.64875  0.08218  1.0000
  C   C6        1.0  0.70724  0.14876  0.58219  1.0000
  N   N1        1.0  0.21035  0.88744  0.10115  1.0000
  N   N2        1.0  0.78965  0.38744  0.60114  1.0000
  N   N3        1.0  0.08298  0.98488  0.17553  1.0000
  N   N4        1.0  0.91703  0.48489  0.67551  1.0000
  N   N5        1.0  0.99822  0.93398  0.25468  1.0000
  N   N6        1.0  0.00178  0.43400  0.75467  1.0000
  N   N7        1.0  0.05998  0.80692  0.23761  1.0000
  N   N8        1.0  0.94000  0.30695  0.73761  1.0000
  N   N9        1.0  0.45000  0.54859  0.23347  1.0000
  N   N10       1.0  0.55001  0.04862  0.73349  1.0000
  N   N11       1.0  0.59133  0.43056  0.23597  1.0000
  N   N12       1.0  0.40866  0.93059  0.73600  1.0000
  N   N13       1.0  0.65930  0.35984  0.14255  1.0000
  N   N14       1.0  0.34069  0.85986  0.64259  1.0000
  N   N15       1.0  0.56004  0.43413  0.07784  1.0000
  N   N16       1.0  0.43995  0.93414  0.57788  1.0000
  N   N17       1.0  0.24000  0.62480  0.98090  1.0000
  N   N18       1.0  0.76000  0.12479  0.48091  1.0000
  O   O1        1.0  0.14564  0.26941  0.36818  1.0000
  O   O2        1.0  0.85438  0.76944  0.86819  1.0000
  O   O3        1.0  0.14643  0.58715  0.44110  1.0000
  O   O4        1.0  0.85357  0.08717  0.94112  1.0000
  O   O5        1.0  0.34843  0.51093  0.92352  1.0000
  O   O6        1.0  0.65159  0.01091  0.42355  1.0000
