data_image0
_chemical_formula_structural       Cd2H30C38Br4N6O2
_chemical_formula_sum              "Cd2 H30 C38 Br4 N6 O2"
_cell_length_a       7.3636
_cell_length_b       8.81359
_cell_length_c       15.1435
_cell_angle_alpha    78.1463
_cell_angle_beta     79.183
_cell_angle_gamma    81.1783

_space_group_name_H-M_alt    "P 1"
_space_group_IT_number       1

loop_
  _space_group_symop_operation_xyz
  'x, y, z'

loop_
  _atom_site_type_symbol
  _atom_site_label
  _atom_site_symmetry_multiplicity
  _atom_site_fract_x
  _atom_site_fract_y
  _atom_site_fract_z
  _atom_site_occupancy
  Cd  Cd1       1.0  0.25081  0.93191  0.04035  1.0000
  Cd  Cd2       1.0  0.74920  0.06809  0.95965  1.0000
  H   H1        1.0  0.40066  0.07408  0.69322  1.0000
  H   H2        1.0  0.59934  0.92592  0.30679  1.0000
  H   H3        1.0  0.91623  0.88874  0.16952  1.0000
  H   H4        1.0  0.08377  0.11126  0.83049  1.0000
  H   H5        1.0  0.43022  0.31931  0.74357  1.0000
  H   H6        1.0  0.56978  0.68069  0.25643  1.0000
  H   H7        1.0  0.34605  0.57812  0.65105  1.0000
  H   H8        1.0  0.65395  0.42188  0.34895  1.0000
  H   H9        1.0  0.21322  0.60137  0.50772  1.0000
  H   H10       1.0  0.78678  0.39863  0.49228  1.0000
  H   H11       1.0  0.97590  0.27992  0.32162  1.0000
  H   H12       1.0  0.02412  0.72008  0.67837  1.0000
  H   H13       1.0  0.91004  0.13487  0.20909  1.0000
  H   H14       1.0  0.08997  0.86514  0.79090  1.0000
  H   H15       1.0  0.22242  0.71918  0.33697  1.0000
  H   H16       1.0  0.77758  0.28082  0.66303  1.0000
  H   H17       1.0  0.28471  0.86326  0.44863  1.0000
  H   H18       1.0  0.71530  0.13673  0.55137  1.0000
  H   H19       1.0  0.97524  0.63865  0.16701  1.0000
  H   H20       1.0  0.02476  0.36135  0.83299  1.0000
  H   H21       1.0  0.01757  0.61932  0.28041  1.0000
  H   H22       1.0  0.98243  0.38068  0.71959  1.0000
  H   H23       1.0  0.25425  0.40490  0.28825  1.0000
  H   H24       1.0  0.74575  0.59509  0.71175  1.0000
  H   H25       1.0  0.57009  0.28162  0.22630  1.0000
  H   H26       1.0  0.42991  0.71838  0.77370  1.0000
  H   H27       1.0  0.75323  0.42663  0.08497  1.0000
  H   H28       1.0  0.24677  0.57336  0.91503  1.0000
  H   H29       1.0  0.60894  0.68701  0.01148  1.0000
  H   H30       1.0  0.39106  0.31299  0.98852  1.0000
  C   C1        1.0  0.29171  0.20464  0.57195  1.0000
  C   C2        1.0  0.70829  0.79536  0.42805  1.0000
  C   C3        1.0  0.36085  0.18749  0.65286  1.0000
  C   C4        1.0  0.63916  0.81251  0.34714  1.0000
  C   C5        1.0  0.37760  0.32645  0.68004  1.0000
  C   C6        1.0  0.62240  0.67355  0.31996  1.0000
  C   C7        1.0  0.32750  0.47326  0.62782  1.0000
  C   C8        1.0  0.67250  0.52674  0.37218  1.0000
  C   C9        1.0  0.25533  0.48786  0.54713  1.0000
  C   C10       1.0  0.74467  0.51214  0.45287  1.0000
  C   C11       1.0  0.23666  0.35002  0.51940  1.0000
  C   C12       1.0  0.76335  0.64999  0.48060  1.0000
  C   C13       1.0  0.18655  0.17149  0.45238  1.0000
  C   C14       1.0  0.81345  0.82851  0.54762  1.0000
  C   C15       1.0  0.13923  0.08252  0.39140  1.0000
  C   C16       1.0  0.86078  0.91748  0.60860  1.0000
  C   C17       1.0  0.03051  0.15729  0.32394  1.0000
  C   C18       1.0  0.96950  0.84271  0.67606  1.0000
  C   C19       1.0  0.99207  0.07617  0.26192  1.0000
  C   C20       1.0  0.00794  0.92383  0.73808  1.0000
  C   C21       1.0  0.06394  0.91805  0.26410  1.0000
  C   C22       1.0  0.93606  0.08196  0.73590  1.0000
  C   C23       1.0  0.16690  0.84167  0.33304  1.0000
  C   C24       1.0  0.83310  0.15833  0.66696  1.0000
  C   C25       1.0  0.20252  0.92308  0.39619  1.0000
  C   C26       1.0  0.79748  0.07692  0.60381  1.0000
  C   C27       1.0  0.06403  0.67243  0.20890  1.0000
  C   C28       1.0  0.93597  0.32757  0.79111  1.0000
  C   C29       1.0  0.26231  0.60424  0.17867  1.0000
  C   C30       1.0  0.73769  0.39576  0.82133  1.0000
  C   C31       1.0  0.33503  0.46086  0.22528  1.0000
  C   C32       1.0  0.66497  0.53914  0.77472  1.0000
  C   C33       1.0  0.51238  0.39475  0.19177  1.0000
  C   C34       1.0  0.48762  0.60525  0.80823  1.0000
  C   C35       1.0  0.61450  0.47467  0.11369  1.0000
  C   C36       1.0  0.38550  0.52534  0.88631  1.0000
  C   C37       1.0  0.53445  0.61845  0.07201  1.0000
  C   C38       1.0  0.46555  0.38154  0.92799  1.0000
  Br  Br1       1.0  0.48270  0.96617  0.87754  1.0000
  Br  Br2       1.0  0.51729  0.03385  0.12246  1.0000
  Br  Br3       1.0  0.02810  0.20525  0.02018  1.0000
  Br  Br4       1.0  0.97190  0.79475  0.97982  1.0000
  N   N1        1.0  0.17036  0.32389  0.44413  1.0000
  N   N2        1.0  0.82964  0.67610  0.55587  1.0000
  N   N3        1.0  0.03527  0.84287  0.19551  1.0000
  N   N4        1.0  0.96473  0.15713  0.80449  1.0000
  N   N5        1.0  0.36213  0.68087  0.10368  1.0000
  N   N6        1.0  0.63786  0.31913  0.89632  1.0000
  O   O1        1.0  0.26188  0.08966  0.52861  1.0000
  O   O2        1.0  0.73813  0.91034  0.47139  1.0000
