data_image0
_chemical_formula_structural       Sr2H36C28N8O20
_chemical_formula_sum              "Sr2 H36 C28 N8 O20"
_cell_length_a       9.2148
_cell_length_b       9.2148
_cell_length_c       11.2746
_cell_angle_alpha    96.9528
_cell_angle_beta     96.9528
_cell_angle_gamma    94.0887

_space_group_name_H-M_alt    "P 1"
_space_group_IT_number       1

loop_
  _space_group_symop_operation_xyz
  'x, y, z'

loop_
  _atom_site_type_symbol
  _atom_site_label
  _atom_site_symmetry_multiplicity
  _atom_site_fract_x
  _atom_site_fract_y
  _atom_site_fract_z
  _atom_site_occupancy
  Sr  Sr1       1.0  0.91383  0.08617  0.75000  1.0000
  Sr  Sr2       1.0  0.08617  0.91383  0.25000  1.0000
  H   H1        1.0  0.85976  0.96472  0.48104  1.0000
  H   H2        1.0  0.03527  0.14024  0.01896  1.0000
  H   H3        1.0  0.14024  0.03527  0.51896  1.0000
  H   H4        1.0  0.96473  0.85976  0.98104  1.0000
  H   H5        1.0  0.83430  0.13143  0.47393  1.0000
  H   H6        1.0  0.86857  0.16570  0.02607  1.0000
  H   H7        1.0  0.16570  0.86856  0.52607  1.0000
  H   H8        1.0  0.13144  0.83430  0.97393  1.0000
  H   H9        1.0  0.44120  0.82288  0.91252  1.0000
  H   H10       1.0  0.17712  0.55880  0.58748  1.0000
  H   H11       1.0  0.55880  0.17712  0.08748  1.0000
  H   H12       1.0  0.82288  0.44120  0.41252  1.0000
  H   H13       1.0  0.28774  0.18242  0.69659  1.0000
  H   H14       1.0  0.81757  0.71226  0.80341  1.0000
  H   H15       1.0  0.71226  0.81758  0.30341  1.0000
  H   H16       1.0  0.18242  0.28774  0.19659  1.0000
  H   H17       1.0  0.66144  0.31745  0.61223  1.0000
  H   H18       1.0  0.68255  0.33856  0.88777  1.0000
  H   H19       1.0  0.33856  0.68255  0.38777  1.0000
  H   H20       1.0  0.31745  0.66145  0.11223  1.0000
  H   H21       1.0  0.49160  0.38903  0.63490  1.0000
  H   H22       1.0  0.61097  0.50840  0.86510  1.0000
  H   H23       1.0  0.50840  0.61097  0.36510  1.0000
  H   H24       1.0  0.38903  0.49160  0.13490  1.0000
  H   H25       1.0  0.53194  0.13319  0.44285  1.0000
  H   H26       1.0  0.86681  0.46806  0.05715  1.0000
  H   H27       1.0  0.46807  0.86681  0.55715  1.0000
  H   H28       1.0  0.13319  0.53194  0.94285  1.0000
  H   H29       1.0  0.50677  0.31671  0.41610  1.0000
  H   H30       1.0  0.68329  0.49323  0.08390  1.0000
  H   H31       1.0  0.49323  0.68329  0.58390  1.0000
  H   H32       1.0  0.31671  0.50677  0.91610  1.0000
  H   H33       1.0  0.36199  0.20782  0.46289  1.0000
  H   H34       1.0  0.79218  0.63801  0.03711  1.0000
  H   H35       1.0  0.63801  0.79218  0.53711  1.0000
  H   H36       1.0  0.20782  0.36199  0.96289  1.0000
  C   C1        1.0  0.54946  0.00530  0.80230  1.0000
  C   C2        1.0  0.99470  0.45054  0.69770  1.0000
  C   C3        1.0  0.45054  0.99470  0.19770  1.0000
  C   C4        1.0  0.00530  0.54946  0.30230  1.0000
  C   C5        1.0  0.40188  0.03222  0.79591  1.0000
  C   C6        1.0  0.96777  0.59812  0.70408  1.0000
  C   C7        1.0  0.59812  0.96778  0.20409  1.0000
  C   C8        1.0  0.03222  0.40188  0.29592  1.0000
  C   C9        1.0  0.51922  0.17817  0.68865  1.0000
  C   C10       1.0  0.82183  0.48078  0.81135  1.0000
  C   C11       1.0  0.48078  0.82183  0.31135  1.0000
  C   C12       1.0  0.17817  0.51922  0.18865  1.0000
  C   C13       1.0  0.62862  0.89365  0.85923  1.0000
  C   C14       1.0  0.10635  0.37138  0.64077  1.0000
  C   C15       1.0  0.37138  0.10635  0.14077  1.0000
  C   C16       1.0  0.89365  0.62862  0.35923  1.0000
  C   C17       1.0  0.27857  0.97271  0.85286  1.0000
  C   C18       1.0  0.02729  0.72143  0.64714  1.0000
  C   C19       1.0  0.72143  0.02729  0.14714  1.0000
  C   C20       1.0  0.97271  0.27857  0.35286  1.0000
  C   C21       1.0  0.54286  0.28892  0.60513  1.0000
  C   C22       1.0  0.71108  0.45714  0.89487  1.0000
  C   C23       1.0  0.45714  0.71108  0.39487  1.0000
  C   C24       1.0  0.28892  0.54286  0.10513  1.0000
  C   C25       1.0  0.48141  0.23273  0.47367  1.0000
  C   C26       1.0  0.76727  0.51859  0.02634  1.0000
  C   C27       1.0  0.51859  0.76727  0.52633  1.0000
  C   C28       1.0  0.23273  0.48141  0.97367  1.0000
  N   N1        1.0  0.62066  0.09796  0.73661  1.0000
  N   N2        1.0  0.90204  0.37934  0.76339  1.0000
  N   N3        1.0  0.37934  0.90204  0.26339  1.0000
  N   N4        1.0  0.09796  0.62066  0.23661  1.0000
  N   N5        1.0  0.38671  0.14153  0.72418  1.0000
  N   N6        1.0  0.85847  0.61329  0.77582  1.0000
  N   N7        1.0  0.61329  0.85847  0.27582  1.0000
  N   N8        1.0  0.14153  0.38671  0.22418  1.0000
  O   O1        1.0  0.76299  0.88638  0.85147  1.0000
  O   O2        1.0  0.11361  0.23700  0.64853  1.0000
  O   O3        1.0  0.23701  0.11362  0.14853  1.0000
  O   O4        1.0  0.88638  0.76299  0.35147  1.0000
  O   O5        1.0  0.81809  0.04897  0.52104  1.0000
  O   O6        1.0  0.95103  0.18191  0.97896  1.0000
  O   O7        1.0  0.18191  0.95103  0.47896  1.0000
  O   O8        1.0  0.04897  0.81809  0.02104  1.0000
  O   O9        1.0  0.55621  0.79995  0.91378  1.0000
  O   O10       1.0  0.20005  0.44379  0.58622  1.0000
  O   O11       1.0  0.44379  0.20005  0.08622  1.0000
  O   O12       1.0  0.79995  0.55621  0.41378  1.0000
  O   O13       1.0  0.29959  0.86114  0.91048  1.0000
  O   O14       1.0  0.13886  0.70041  0.58952  1.0000
  O   O15       1.0  0.70041  0.13886  0.08952  1.0000
  O   O16       1.0  0.86114  0.29959  0.41048  1.0000
  O   O17       1.0  0.16123  0.03367  0.84470  1.0000
  O   O18       1.0  0.96633  0.83877  0.65529  1.0000
  O   O19       1.0  0.83877  0.96633  0.15530  1.0000
  O   O20       1.0  0.03367  0.16123  0.34470  1.0000
