data_image0
_chemical_formula_structural       Ba2H32C28N8O18
_chemical_formula_sum              "Ba2 H32 C28 N8 O18"
_cell_length_a       4.44393
_cell_length_b       12.069
_cell_length_c       16.1753
_cell_angle_alpha    90
_cell_angle_beta     90.0002
_cell_angle_gamma    98.355

_space_group_name_H-M_alt    "P 1"
_space_group_IT_number       1

loop_
  _space_group_symop_operation_xyz
  'x, y, z'

loop_
  _atom_site_type_symbol
  _atom_site_label
  _atom_site_symmetry_multiplicity
  _atom_site_fract_x
  _atom_site_fract_y
  _atom_site_fract_z
  _atom_site_occupancy
  Ba  Ba1       1.0  0.26020  0.56354  0.24879  1.0000
  Ba  Ba2       1.0  0.26019  0.06354  0.75121  1.0000
  H   H1        1.0  0.03976  0.15646  0.00452  1.0000
  H   H2        1.0  0.03976  0.65646  0.99548  1.0000
  H   H3        1.0  0.06084  0.55013  0.47924  1.0000
  H   H4        1.0  0.06084  0.05013  0.52076  1.0000
  H   H5        1.0  0.76412  0.43640  0.93986  1.0000
  H   H6        1.0  0.76413  0.93640  0.06014  1.0000
  H   H7        1.0  0.25507  0.29324  0.42626  1.0000
  H   H8        1.0  0.25507  0.79324  0.57374  1.0000
  H   H9        1.0  0.81682  0.76693  0.30899  1.0000
  H   H10       1.0  0.81682  0.26693  0.69101  1.0000
  H   H11       1.0  0.82576  0.76004  0.21120  1.0000
  H   H12       1.0  0.82576  0.26004  0.78880  1.0000
  H   H13       1.0  0.92618  0.10853  0.17493  1.0000
  H   H14       1.0  0.92617  0.60853  0.82507  1.0000
  H   H15       1.0  0.63397  0.17115  0.13015  1.0000
  H   H16       1.0  0.63397  0.67115  0.86985  1.0000
  H   H17       1.0  0.69453  0.32188  0.23833  1.0000
  H   H18       1.0  0.69453  0.82188  0.76167  1.0000
  H   H19       1.0  0.00781  0.26637  0.28181  1.0000
  H   H20       1.0  0.00780  0.76637  0.71819  1.0000
  H   H21       1.0  0.63541  0.18885  0.28585  1.0000
  H   H22       1.0  0.63541  0.68885  0.71415  1.0000
  H   H23       1.0  0.15549  0.59628  0.65557  1.0000
  H   H24       1.0  0.15549  0.09629  0.34443  1.0000
  H   H25       1.0  0.44300  0.53008  0.61276  1.0000
  H   H26       1.0  0.44300  0.03008  0.38724  1.0000
  H   H27       1.0  0.33428  0.37368  0.71999  1.0000
  H   H28       1.0  0.33428  0.87368  0.28001  1.0000
  H   H29       1.0  0.05273  0.44548  0.76434  1.0000
  H   H30       1.0  0.05273  0.94548  0.23566  1.0000
  H   H31       1.0  0.44007  0.50669  0.76516  1.0000
  H   H32       1.0  0.44007  0.00669  0.23484  1.0000
  C   C1        1.0  0.68396  0.48279  0.07090  1.0000
  C   C2        1.0  0.68395  0.98279  0.92910  1.0000
  C   C3        1.0  0.43857  0.38516  0.06656  1.0000
  C   C4        1.0  0.43857  0.88516  0.93344  1.0000
  C   C5        1.0  0.36478  0.30828  0.00249  1.0000
  C   C6        1.0  0.36478  0.80827  0.99751  1.0000
  C   C7        1.0  0.47064  0.29958  0.91725  1.0000
  C   C8        1.0  0.47065  0.79958  0.08275  1.0000
  C   C9        1.0  0.07694  0.25976  0.11228  1.0000
  C   C10       1.0  0.07694  0.75975  0.88772  1.0000
  C   C11       1.0  0.84766  0.19017  0.16527  1.0000
  C   C12       1.0  0.84766  0.69017  0.83473  1.0000
  C   C13       1.0  0.79443  0.24499  0.24763  1.0000
  C   C14       1.0  0.79443  0.74499  0.75237  1.0000
  C   C15       1.0  0.38036  0.23393  0.53634  1.0000
  C   C16       1.0  0.38036  0.73393  0.46366  1.0000
  C   C17       1.0  0.62134  0.33184  0.53944  1.0000
  C   C18       1.0  0.62134  0.83184  0.46056  1.0000
  C   C19       1.0  0.70995  0.41064  0.47745  1.0000
  C   C20       1.0  0.70995  0.91064  0.52255  1.0000
  C   C21       1.0  0.60275  0.42729  0.39251  1.0000
  C   C22       1.0  0.60275  0.92729  0.60748  1.0000
  C   C23       1.0  0.99587  0.44921  0.58946  1.0000
  C   C24       1.0  0.99587  0.94921  0.41054  1.0000
  C   C25       1.0  0.22447  0.51325  0.64574  1.0000
  C   C26       1.0  0.22447  0.01325  0.35427  1.0000
  C   C27       1.0  0.26396  0.45625  0.72823  1.0000
  C   C28       1.0  0.26395  0.95626  0.27177  1.0000
  N   N1        1.0  0.25535  0.35436  0.13387  1.0000
  N   N2        1.0  0.25535  0.85435  0.86613  1.0000
  N   N3        1.0  0.13744  0.22983  0.03351  1.0000
  N   N4        1.0  0.13744  0.72983  0.96649  1.0000
  N   N5        1.0  0.80392  0.35668  0.60781  1.0000
  N   N6        1.0  0.80392  0.85668  0.39219  1.0000
  N   N7        1.0  0.94585  0.48248  0.51062  1.0000
  N   N8        1.0  0.94584  0.98248  0.48939  1.0000
  O   O1        1.0  0.73790  0.53090  0.13947  1.0000
  O   O2        1.0  0.73790  0.03089  0.86053  1.0000
  O   O3        1.0  0.83343  0.51225  0.00385  1.0000
  O   O4        1.0  0.83343  0.01225  0.99615  1.0000
  O   O5        1.0  0.69875  0.37452  0.89171  1.0000
  O   O6        1.0  0.69875  0.87452  0.10829  1.0000
  O   O7        1.0  0.34667  0.22372  0.87172  1.0000
  O   O8        1.0  0.34668  0.72372  0.12828  1.0000
  O   O9        1.0  0.34667  0.16106  0.59140  1.0000
  O   O10       1.0  0.34667  0.66106  0.40860  1.0000
  O   O11       1.0  0.19858  0.22508  0.47161  1.0000
  O   O12       1.0  0.19858  0.72507  0.52838  1.0000
  O   O13       1.0  0.34437  0.37223  0.37046  1.0000
  O   O14       1.0  0.34437  0.87224  0.62954  1.0000
  O   O15       1.0  0.75950  0.49639  0.34596  1.0000
  O   O16       1.0  0.75950  0.99639  0.65403  1.0000
  O   O17       1.0  0.82348  0.71405  0.26093  1.0000
  O   O18       1.0  0.82348  0.21406  0.73907  1.0000
