data_image0
_chemical_formula_structural       Cd4H24C24N16Cl8
_chemical_formula_sum              "Cd4 H24 C24 N16 Cl8"
_cell_length_a       7.13865
_cell_length_b       8.82981
_cell_length_c       14.7842
_cell_angle_alpha    89.9999
_cell_angle_beta     97.5262
_cell_angle_gamma    90.0001

_space_group_name_H-M_alt    "P 1"
_space_group_IT_number       1

loop_
  _space_group_symop_operation_xyz
  'x, y, z'

loop_
  _atom_site_type_symbol
  _atom_site_label
  _atom_site_symmetry_multiplicity
  _atom_site_fract_x
  _atom_site_fract_y
  _atom_site_fract_z
  _atom_site_occupancy
  Cd  Cd1       1.0  0.90897  0.15095  0.76290  1.0000
  Cd  Cd2       1.0  0.59103  0.65096  0.23710  1.0000
  Cd  Cd3       1.0  0.09103  0.84905  0.23710  1.0000
  Cd  Cd4       1.0  0.40897  0.34904  0.76290  1.0000
  H   H1        1.0  0.74443  0.59557  0.64620  1.0000
  H   H2        1.0  0.75557  0.09556  0.35380  1.0000
  H   H3        1.0  0.25557  0.40443  0.35380  1.0000
  H   H4        1.0  0.24443  0.90444  0.64620  1.0000
  H   H5        1.0  0.95558  0.55794  0.81409  1.0000
  H   H6        1.0  0.54442  0.05794  0.18591  1.0000
  H   H7        1.0  0.04442  0.44206  0.18591  1.0000
  H   H8        1.0  0.45558  0.94206  0.81409  1.0000
  H   H9        1.0  0.64889  0.03641  0.53548  1.0000
  H   H10       1.0  0.85112  0.53642  0.46452  1.0000
  H   H11       1.0  0.35113  0.96358  0.46452  1.0000
  H   H12       1.0  0.14888  0.46359  0.53548  1.0000
  H   H13       1.0  0.59214  0.72792  0.50116  1.0000
  H   H14       1.0  0.90786  0.22792  0.49884  1.0000
  H   H15       1.0  0.40786  0.27208  0.49884  1.0000
  H   H16       1.0  0.09214  0.77208  0.50116  1.0000
  H   H17       1.0  0.14114  0.93805  0.97275  1.0000
  H   H18       1.0  0.35887  0.43805  0.02724  1.0000
  H   H19       1.0  0.85886  0.06195  0.02725  1.0000
  H   H20       1.0  0.64113  0.56195  0.97276  1.0000
  H   H21       1.0  0.12524  0.62456  0.96811  1.0000
  H   H22       1.0  0.37476  0.12457  0.03189  1.0000
  H   H23       1.0  0.87477  0.37544  0.03189  1.0000
  H   H24       1.0  0.62524  0.87543  0.96811  1.0000
  C   C1        1.0  0.81999  0.81716  0.69838  1.0000
  C   C2        1.0  0.68001  0.31717  0.30162  1.0000
  C   C3        1.0  0.18001  0.18284  0.30162  1.0000
  C   C4        1.0  0.31999  0.68283  0.69838  1.0000
  C   C5        1.0  0.69100  0.93946  0.57816  1.0000
  C   C6        1.0  0.80901  0.43946  0.42184  1.0000
  C   C7        1.0  0.30901  0.06054  0.42184  1.0000
  C   C8        1.0  0.19099  0.56054  0.57816  1.0000
  C   C9        1.0  0.66271  0.78723  0.56022  1.0000
  C   C10       1.0  0.83729  0.28723  0.43978  1.0000
  C   C11       1.0  0.33729  0.21277  0.43978  1.0000
  C   C12       1.0  0.16271  0.71277  0.56022  1.0000
  C   C13       1.0  0.92418  0.79726  0.78778  1.0000
  C   C14       1.0  0.57582  0.29726  0.21222  1.0000
  C   C15       1.0  0.07582  0.20274  0.21222  1.0000
  C   C16       1.0  0.42418  0.70274  0.78778  1.0000
  C   C17       1.0  0.07690  0.86412  0.91905  1.0000
  C   C18       1.0  0.42310  0.36413  0.08095  1.0000
  C   C19       1.0  0.92310  0.13588  0.08095  1.0000
  C   C20       1.0  0.57690  0.63588  0.91905  1.0000
  C   C21       1.0  0.07114  0.70823  0.91807  1.0000
  C   C22       1.0  0.42886  0.20823  0.08193  1.0000
  C   C23       1.0  0.92886  0.29177  0.08193  1.0000
  C   C24       1.0  0.57113  0.79177  0.91807  1.0000
  N   N1        1.0  0.78736  0.95668  0.66401  1.0000
  N   N2        1.0  0.71264  0.45668  0.33599  1.0000
  N   N3        1.0  0.21264  0.04332  0.33599  1.0000
  N   N4        1.0  0.28736  0.54332  0.66401  1.0000
  N   N5        1.0  0.74459  0.71191  0.63701  1.0000
  N   N6        1.0  0.75541  0.21191  0.36299  1.0000
  N   N7        1.0  0.25541  0.28808  0.36299  1.0000
  N   N8        1.0  0.24459  0.78808  0.63701  1.0000
  N   N9        1.0  0.98665  0.91826  0.83787  1.0000
  N   N10       1.0  0.51335  0.41827  0.16213  1.0000
  N   N11       1.0  0.01334  0.08173  0.16213  1.0000
  N   N12       1.0  0.48665  0.58173  0.83787  1.0000
  N   N13       1.0  0.97482  0.66808  0.83482  1.0000
  N   N14       1.0  0.52518  0.16809  0.16518  1.0000
  N   N15       1.0  0.02517  0.33192  0.16518  1.0000
  N   N16       1.0  0.47483  0.83191  0.83482  1.0000
  Cl  Cl1       1.0  0.12151  0.32939  0.86654  1.0000
  Cl  Cl2       1.0  0.37849  0.82940  0.13346  1.0000
  Cl  Cl3       1.0  0.87849  0.67061  0.13345  1.0000
  Cl  Cl4       1.0  0.62151  0.17061  0.86655  1.0000
  Cl  Cl5       1.0  0.71402  0.35906  0.66275  1.0000
  Cl  Cl6       1.0  0.78599  0.85906  0.33725  1.0000
  Cl  Cl7       1.0  0.28598  0.64094  0.33726  1.0000
  Cl  Cl8       1.0  0.21401  0.14094  0.66275  1.0000
