data_image0
_chemical_formula_structural       Ag4H28C28N8O16
_chemical_formula_sum              "Ag4 H28 C28 N8 O16"
_cell_length_a       7.75623
_cell_length_b       10.4768
_cell_length_c       12.3176
_cell_angle_alpha    115.135
_cell_angle_beta     108.099
_cell_angle_gamma    90.0071

_space_group_name_H-M_alt    "P 1"
_space_group_IT_number       1

loop_
  _space_group_symop_operation_xyz
  'x, y, z'

loop_
  _atom_site_type_symbol
  _atom_site_label
  _atom_site_symmetry_multiplicity
  _atom_site_fract_x
  _atom_site_fract_y
  _atom_site_fract_z
  _atom_site_occupancy
  Ag  Ag1       1.0  0.33563  0.51548  0.54371  1.0000
  Ag  Ag2       1.0  0.16445  0.97212  0.45640  1.0000
  Ag  Ag3       1.0  0.66437  0.48452  0.45629  1.0000
  Ag  Ag4       1.0  0.83555  0.02788  0.54360  1.0000
  H   H1        1.0  0.93000  0.36271  0.29409  1.0000
  H   H2        1.0  0.56964  0.06825  0.70589  1.0000
  H   H3        1.0  0.07000  0.63729  0.70592  1.0000
  H   H4        1.0  0.43036  0.93175  0.29411  1.0000
  H   H5        1.0  0.59753  0.93241  0.06604  1.0000
  H   H6        1.0  0.90249  0.86600  0.93390  1.0000
  H   H7        1.0  0.40247  0.06760  0.93396  1.0000
  H   H8        1.0  0.09751  0.13400  0.06610  1.0000
  H   H9        1.0  0.63204  0.71080  0.09089  1.0000
  H   H10       1.0  0.86811  0.61929  0.90899  1.0000
  H   H11       1.0  0.36796  0.28919  0.90910  1.0000
  H   H12       1.0  0.13189  0.38071  0.09101  1.0000
  H   H13       1.0  0.68307  0.76150  0.25479  1.0000
  H   H14       1.0  0.81683  0.50630  0.74505  1.0000
  H   H15       1.0  0.31693  0.23850  0.74521  1.0000
  H   H16       1.0  0.18318  0.49370  0.25495  1.0000
  H   H17       1.0  0.97055  0.66861  0.12221  1.0000
  H   H18       1.0  0.52941  0.54609  0.87771  1.0000
  H   H19       1.0  0.02945  0.33139  0.87779  1.0000
  H   H20       1.0  0.47059  0.45391  0.12229  1.0000
  H   H21       1.0  0.84130  0.55715  0.15572  1.0000
  H   H22       1.0  0.65854  0.40108  0.84427  1.0000
  H   H23       1.0  0.15870  0.44285  0.84428  1.0000
  H   H24       1.0  0.34146  0.59892  0.15572  1.0000
  H   H25       1.0  0.99983  0.70686  0.28232  1.0000
  H   H26       1.0  0.50015  0.42430  0.71762  1.0000
  H   H27       1.0  0.00017  0.29314  0.71768  1.0000
  H   H28       1.0  0.49985  0.57570  0.28238  1.0000
  C   C1        1.0  0.94483  0.12933  0.31259  1.0000
  C   C2        1.0  0.55503  0.81640  0.68740  1.0000
  C   C3        1.0  0.05517  0.87066  0.68741  1.0000
  C   C4        1.0  0.44497  0.18360  0.31260  1.0000
  C   C5        1.0  0.79877  0.11702  0.20630  1.0000
  C   C6        1.0  0.70105  0.91032  0.79367  1.0000
  C   C7        1.0  0.20123  0.88298  0.79370  1.0000
  C   C8        1.0  0.29895  0.08968  0.20633  1.0000
  C   C9        1.0  0.80258  0.90847  0.21455  1.0000
  C   C10       1.0  0.69751  0.69353  0.78542  1.0000
  C   C11       1.0  0.19742  0.09153  0.78545  1.0000
  C   C12       1.0  0.30249  0.30647  0.21458  1.0000
  C   C13       1.0  0.08693  0.25204  0.41316  1.0000
  C   C14       1.0  0.41289  0.83856  0.58676  1.0000
  C   C15       1.0  0.91307  0.74796  0.58684  1.0000
  C   C16       1.0  0.58711  0.16144  0.41324  1.0000
  C   C17       1.0  0.72661  0.21742  0.15476  1.0000
  C   C18       1.0  0.77312  0.06223  0.84519  1.0000
  C   C19       1.0  0.27339  0.78258  0.84524  1.0000
  C   C20       1.0  0.22688  0.93777  0.15481  1.0000
  C   C21       1.0  0.74351  0.75827  0.18377  1.0000
  C   C22       1.0  0.75657  0.57404  0.81613  1.0000
  C   C23       1.0  0.25649  0.24173  0.81622  1.0000
  C   C24       1.0  0.24343  0.42596  0.18387  1.0000
  C   C25       1.0  0.89826  0.66749  0.18561  1.0000
  C   C26       1.0  0.60171  0.48154  0.81434  1.0000
  C   C27       1.0  0.10174  0.33251  0.81439  1.0000
  C   C28       1.0  0.39829  0.51846  0.18565  1.0000
  N   N1        1.0  0.94470  0.99926  0.31496  1.0000
  N   N2        1.0  0.55534  0.68395  0.68502  1.0000
  N   N3        1.0  0.05530  0.00074  0.68504  1.0000
  N   N4        1.0  0.44466  0.31605  0.31498  1.0000
  N   N5        1.0  0.71357  0.97750  0.14763  1.0000
  N   N6        1.0  0.78641  0.82944  0.85233  1.0000
  N   N7        1.0  0.28643  0.02250  0.85237  1.0000
  N   N8        1.0  0.21358  0.17056  0.14767  1.0000
  O   O1        1.0  0.20564  0.24011  0.50221  1.0000
  O   O2        1.0  0.29435  0.73761  0.49766  1.0000
  O   O3        1.0  0.79436  0.75989  0.49779  1.0000
  O   O4        1.0  0.70565  0.26239  0.50234  1.0000
  O   O5        1.0  0.08236  0.36957  0.40037  1.0000
  O   O6        1.0  0.41737  0.96889  0.59962  1.0000
  O   O7        1.0  0.91764  0.63043  0.59963  1.0000
  O   O8        1.0  0.58263  0.03111  0.40038  1.0000
  O   O9        1.0  0.81509  0.34907  0.21450  1.0000
  O   O10       1.0  0.68454  0.13417  0.78548  1.0000
  O   O11       1.0  0.18491  0.65093  0.78550  1.0000
  O   O12       1.0  0.31546  0.86583  0.21452  1.0000
  O   O13       1.0  0.58590  0.17969  0.05914  1.0000
  O   O14       1.0  0.91387  0.12003  0.94076  1.0000
  O   O15       1.0  0.41410  0.82031  0.94086  1.0000
  O   O16       1.0  0.08613  0.87997  0.05924  1.0000
