data_image0
_chemical_formula_structural       Ag4H12C16N12O12
_chemical_formula_sum              "Ag4 H12 C16 N12 O12"
_cell_length_a       3.52263
_cell_length_b       10.6393
_cell_length_c       16.5441
_cell_angle_alpha    88.8554
_cell_angle_beta     84.0597
_cell_angle_gamma    80.6694

_space_group_name_H-M_alt    "P 1"
_space_group_IT_number       1

loop_
  _space_group_symop_operation_xyz
  'x, y, z'

loop_
  _atom_site_type_symbol
  _atom_site_label
  _atom_site_symmetry_multiplicity
  _atom_site_fract_x
  _atom_site_fract_y
  _atom_site_fract_z
  _atom_site_occupancy
  Ag  Ag1       1.0  0.50910  0.84386  0.84391  1.0000
  Ag  Ag2       1.0  0.19822  0.65639  0.65592  1.0000
  Ag  Ag3       1.0  0.49089  0.15614  0.15609  1.0000
  Ag  Ag4       1.0  0.80179  0.34361  0.34408  1.0000
  H   H1        1.0  0.92923  0.86819  0.19603  1.0000
  H   H2        1.0  0.98931  0.63259  0.30414  1.0000
  H   H3        1.0  0.07080  0.13180  0.80396  1.0000
  H   H4        1.0  0.01068  0.36741  0.69585  1.0000
  H   H5        1.0  0.10299  0.65318  0.12513  1.0000
  H   H6        1.0  0.87681  0.84798  0.37480  1.0000
  H   H7        1.0  0.89702  0.34682  0.87487  1.0000
  H   H8        1.0  0.12316  0.15202  0.62520  1.0000
  H   H9        1.0  0.94416  0.64419  0.97974  1.0000
  H   H10       1.0  0.56251  0.85694  0.51973  1.0000
  H   H11       1.0  0.05583  0.35579  0.02026  1.0000
  H   H12       1.0  0.43747  0.14306  0.48027  1.0000
  C   C1        1.0  0.60317  0.94321  0.02040  1.0000
  C   C2        1.0  0.56559  0.55704  0.47956  1.0000
  C   C3        1.0  0.39681  0.05678  0.97960  1.0000
  C   C4        1.0  0.43444  0.44296  0.52044  1.0000
  C   C5        1.0  0.86270  0.85397  0.13427  1.0000
  C   C6        1.0  0.84751  0.64674  0.36580  1.0000
  C   C7        1.0  0.13729  0.14602  0.86573  1.0000
  C   C8        1.0  0.15250  0.35326  0.63420  1.0000
  C   C9        1.0  0.95664  0.73665  0.09543  1.0000
  C   C10       1.0  0.78490  0.76422  0.40446  1.0000
  C   C11       1.0  0.04336  0.26334  0.90457  1.0000
  C   C12       1.0  0.21508  0.23578  0.59554  1.0000
  C   C13       1.0  0.87059  0.73127  0.01541  1.0000
  C   C14       1.0  0.61347  0.76956  0.48432  1.0000
  C   C15       1.0  0.12941  0.26872  0.98459  1.0000
  C   C16       1.0  0.38652  0.23045  0.51568  1.0000
  N   N1        1.0  0.69517  0.83448  0.97786  1.0000
  N   N2        1.0  0.50505  0.66603  0.52191  1.0000
  N   N3        1.0  0.30482  0.16550  0.02214  1.0000
  N   N4        1.0  0.49496  0.33396  0.47809  1.0000
  N   N5        1.0  0.68656  0.95739  0.09678  1.0000
  N   N6        1.0  0.73866  0.54300  0.40332  1.0000
  N   N7        1.0  0.31345  0.04261  0.90322  1.0000
  N   N8        1.0  0.26135  0.45699  0.59667  1.0000
  N   N9        1.0  0.82942  0.94663  0.67383  1.0000
  N   N10       1.0  0.45328  0.55255  0.82626  1.0000
  N   N11       1.0  0.17059  0.05337  0.32618  1.0000
  N   N12       1.0  0.54673  0.44745  0.17374  1.0000
  O   O1        1.0  0.00138  0.94804  0.60380  1.0000
  O   O2        1.0  0.55512  0.55115  0.89655  1.0000
  O   O3        1.0  0.99865  0.05196  0.39621  1.0000
  O   O4        1.0  0.44487  0.44885  0.10345  1.0000
  O   O5        1.0  0.71019  0.04596  0.71459  1.0000
  O   O6        1.0  0.47753  0.45332  0.78505  1.0000
  O   O7        1.0  0.28979  0.95403  0.28541  1.0000
  O   O8        1.0  0.52252  0.54669  0.21494  1.0000
  O   O9        1.0  0.77034  0.83739  0.70603  1.0000
  O   O10       1.0  0.31495  0.66152  0.79422  1.0000
  O   O11       1.0  0.22967  0.16261  0.29397  1.0000
  O   O12       1.0  0.68504  0.33848  0.20578  1.0000
