data_image0
_chemical_formula_structural       Cu6H16C16S2I6N12
_chemical_formula_sum              "Cu6 H16 C16 S2 I6 N12"
_cell_length_a       7.16475
_cell_length_b       10.7047
_cell_length_c       12.1225
_cell_angle_alpha    114.353
_cell_angle_beta     98.7701
_cell_angle_gamma    100.71

_space_group_name_H-M_alt    "P 1"
_space_group_IT_number       1

loop_
  _space_group_symop_operation_xyz
  'x, y, z'

loop_
  _atom_site_type_symbol
  _atom_site_label
  _atom_site_symmetry_multiplicity
  _atom_site_fract_x
  _atom_site_fract_y
  _atom_site_fract_z
  _atom_site_occupancy
  Cu  Cu1       1.0  0.62819  0.97786  0.93705  1.0000
  Cu  Cu2       1.0  0.37175  0.02215  0.06296  1.0000
  Cu  Cu3       1.0  0.38829  0.16686  0.94139  1.0000
  Cu  Cu4       1.0  0.61171  0.83313  0.05861  1.0000
  Cu  Cu5       1.0  0.75192  0.24148  0.06751  1.0000
  Cu  Cu6       1.0  0.24809  0.75852  0.93248  1.0000
  H   H1        1.0  0.34450  0.43918  0.07788  1.0000
  H   H2        1.0  0.65551  0.56082  0.92212  1.0000
  H   H3        1.0  0.26845  0.57823  0.05899  1.0000
  H   H4        1.0  0.73155  0.42176  0.94100  1.0000
  H   H5        1.0  0.89699  0.60059  0.69278  1.0000
  H   H6        1.0  0.10302  0.39941  0.30722  1.0000
  H   H7        1.0  0.76638  0.40197  0.48145  1.0000
  H   H8        1.0  0.23362  0.59802  0.51855  1.0000
  H   H9        1.0  0.93551  0.29842  0.43991  1.0000
  H   H10       1.0  0.06449  0.70158  0.56009  1.0000
  H   H11       1.0  0.60451  0.13658  0.35896  1.0000
  H   H12       1.0  0.39549  0.86342  0.64104  1.0000
  H   H13       1.0  0.74177  0.10953  0.47926  1.0000
  H   H14       1.0  0.25823  0.89047  0.52075  1.0000
  H   H15       1.0  0.19497  0.06684  0.69115  1.0000
  H   H16       1.0  0.80503  0.93316  0.30885  1.0000
  C   C1        1.0  0.21820  0.39272  0.89789  1.0000
  C   C2        1.0  0.78180  0.60728  0.10210  1.0000
  C   C3        1.0  0.37056  0.29785  0.49848  1.0000
  C   C4        1.0  0.62944  0.70214  0.50153  1.0000
  C   C5        1.0  0.95977  0.52717  0.71642  1.0000
  C   C6        1.0  0.04024  0.47283  0.28358  1.0000
  C   C7        1.0  0.83040  0.32369  0.49779  1.0000
  C   C8        1.0  0.16960  0.67631  0.50221  1.0000
  C   C9        1.0  0.67562  0.18532  0.45948  1.0000
  C   C10       1.0  0.32437  0.81468  0.54052  1.0000
  C   C11       1.0  0.16757  0.17134  0.72378  1.0000
  C   C12       1.0  0.83244  0.82866  0.27621  1.0000
  C   C13       1.0  0.11772  0.43314  0.81350  1.0000
  C   C14       1.0  0.88229  0.56686  0.18649  1.0000
  C   C15       1.0  0.04029  0.32905  0.68904  1.0000
  C   C16       1.0  0.95972  0.67095  0.31096  1.0000
  S   S1        1.0  0.48601  0.19960  0.54582  1.0000
  S   S2        1.0  0.51399  0.80041  0.45419  1.0000
  I   I1        1.0  0.68749  0.13709  0.82243  1.0000
  I   I2        1.0  0.31251  0.86291  0.17757  1.0000
  I   I3        1.0  0.89427  0.08092  0.15607  1.0000
  I   I4        1.0  0.10573  0.91908  0.84393  1.0000
  I   I5        1.0  0.53902  0.70254  0.80838  1.0000
  I   I6        1.0  0.46099  0.29747  0.19163  1.0000
  N   N1        1.0  0.28337  0.47736  0.02093  1.0000
  N   N2        1.0  0.71664  0.52264  0.97907  1.0000
  N   N3        1.0  0.93796  0.39067  0.62922  1.0000
  N   N4        1.0  0.06204  0.60933  0.37077  1.0000
  N   N5        1.0  0.06235  0.19665  0.63904  1.0000
  N   N6        1.0  0.93765  0.80334  0.36096  1.0000
  N   N7        1.0  0.28486  0.36791  0.47017  1.0000
  N   N8        1.0  0.71514  0.63211  0.52983  1.0000
  N   N9        1.0  0.24472  0.25918  0.84796  1.0000
  N   N10       1.0  0.75528  0.74082  0.15204  1.0000
  N   N11       1.0  0.06901  0.55790  0.82848  1.0000
  N   N12       1.0  0.93100  0.44211  0.17152  1.0000
