data_image0
_chemical_formula_structural       Y2H24C18O18
_chemical_formula_sum              "Y2 H24 C18 O18"
_cell_length_a       8.97516
_cell_length_b       9.53402
_cell_length_c       9.44095
_cell_angle_alpha    74.9546
_cell_angle_beta     64.8743
_cell_angle_gamma    89.5831

_space_group_name_H-M_alt    "P 1"
_space_group_IT_number       1

loop_
  _space_group_symop_operation_xyz
  'x, y, z'

loop_
  _atom_site_type_symbol
  _atom_site_label
  _atom_site_symmetry_multiplicity
  _atom_site_fract_x
  _atom_site_fract_y
  _atom_site_fract_z
  _atom_site_occupancy
  Y   Y1        1.0  0.55848  0.61719  0.13656  1.0000
  Y   Y2        1.0  0.44152  0.38281  0.86344  1.0000
  H   H1        1.0  0.36886  0.18040  0.61478  1.0000
  H   H2        1.0  0.63114  0.81960  0.38522  1.0000
  H   H3        1.0  0.60095  0.08264  0.31502  1.0000
  H   H4        1.0  0.39904  0.91735  0.68498  1.0000
  H   H5        1.0  0.93908  0.37056  0.34905  1.0000
  H   H6        1.0  0.06092  0.62944  0.65094  1.0000
  H   H7        1.0  0.18651  0.55934  0.39212  1.0000
  H   H8        1.0  0.81349  0.44065  0.60787  1.0000
  H   H9        1.0  0.20950  0.86372  0.51998  1.0000
  H   H10       1.0  0.79050  0.13627  0.48003  1.0000
  H   H11       1.0  0.02401  0.01404  0.32242  1.0000
  H   H12       1.0  0.97600  0.98598  0.67759  1.0000
  H   H13       1.0  0.40973  0.83592  0.00518  1.0000
  H   H14       1.0  0.59027  0.16408  0.99482  1.0000
  H   H15       1.0  0.45739  0.73544  0.88196  1.0000
  H   H16       1.0  0.54260  0.26456  0.11804  1.0000
  H   H17       1.0  0.72464  0.93679  0.98381  1.0000
  H   H18       1.0  0.27536  0.06321  0.01619  1.0000
  H   H19       1.0  0.82189  0.82889  0.06387  1.0000
  H   H20       1.0  0.17811  0.17111  0.93613  1.0000
  H   H21       1.0  0.69120  0.58042  0.39034  1.0000
  H   H22       1.0  0.30880  0.41958  0.60966  1.0000
  H   H23       1.0  0.83046  0.54095  0.23470  1.0000
  H   H24       1.0  0.16954  0.45905  0.76530  1.0000
  C   C1        1.0  0.48855  0.33501  0.36986  1.0000
  C   C2        1.0  0.51144  0.66499  0.63014  1.0000
  C   C3        1.0  0.45150  0.18965  0.48752  1.0000
  C   C4        1.0  0.54850  0.81036  0.51248  1.0000
  C   C5        1.0  0.51744  0.07118  0.44287  1.0000
  C   C6        1.0  0.48256  0.92882  0.55713  1.0000
  C   C7        1.0  0.19470  0.43228  0.16436  1.0000
  C   C8        1.0  0.80531  0.56772  0.83562  1.0000
  C   C9        1.0  0.05521  0.43251  0.31987  1.0000
  C   C10       1.0  0.94480  0.56749  0.68013  1.0000
  C   C11       1.0  0.06800  0.50053  0.42392  1.0000
  C   C12       1.0  0.93200  0.49947  0.57607  1.0000
  C   C13       1.0  0.28093  0.84967  0.27241  1.0000
  C   C14       1.0  0.71906  0.15032  0.72759  1.0000
  C   C15       1.0  0.17959  0.90009  0.41660  1.0000
  C   C16       1.0  0.82041  0.09991  0.58340  1.0000
  C   C17       1.0  0.05178  0.97957  0.42766  1.0000
  C   C18       1.0  0.94823  0.02043  0.57235  1.0000
  O   O1        1.0  0.59505  0.35824  0.22033  1.0000
  O   O2        1.0  0.40494  0.64176  0.77967  1.0000
  O   O3        1.0  0.41406  0.44180  0.41662  1.0000
  O   O4        1.0  0.58593  0.55820  0.58338  1.0000
  O   O5        1.0  0.34233  0.48719  0.12436  1.0000
  O   O6        1.0  0.65768  0.51281  0.87564  1.0000
  O   O7        1.0  0.16682  0.37363  0.06951  1.0000
  O   O8        1.0  0.83319  0.62638  0.93048  1.0000
  O   O9        1.0  0.37049  0.74805  0.29400  1.0000
  O   O10       1.0  0.62951  0.25194  0.70600  1.0000
  O   O11       1.0  0.27215  0.90253  0.13798  1.0000
  O   O12       1.0  0.72785  0.09747  0.86202  1.0000
  O   O13       1.0  0.50124  0.78300  0.94099  1.0000
  O   O14       1.0  0.49876  0.21700  0.05901  1.0000
  O   O15       1.0  0.71150  0.85259  0.07905  1.0000
  O   O16       1.0  0.28850  0.14740  0.92095  1.0000
  O   O17       1.0  0.74376  0.60389  0.26716  1.0000
  O   O18       1.0  0.25624  0.39611  0.73284  1.0000
