data_image0
_chemical_formula_structural       Zn2H40C32N6O10
_chemical_formula_sum              "Zn2 H40 C32 N6 O10"
_cell_length_a       8.89838
_cell_length_b       10.1629
_cell_length_c       10.3919
_cell_angle_alpha    69.8268
_cell_angle_beta     75.7585
_cell_angle_gamma    82.0759

_space_group_name_H-M_alt    "P 1"
_space_group_IT_number       1

loop_
  _space_group_symop_operation_xyz
  'x, y, z'

loop_
  _atom_site_type_symbol
  _atom_site_label
  _atom_site_symmetry_multiplicity
  _atom_site_fract_x
  _atom_site_fract_y
  _atom_site_fract_z
  _atom_site_occupancy
  Zn  Zn1       1.0  0.25535  0.19757  0.70770  1.0000
  Zn  Zn2       1.0  0.74465  0.80243  0.29230  1.0000
  H   H1        1.0  0.60843  0.52041  0.75624  1.0000
  H   H2        1.0  0.39158  0.47959  0.24375  1.0000
  H   H3        1.0  0.66747  0.36299  0.87415  1.0000
  H   H4        1.0  0.33253  0.63700  0.12584  1.0000
  H   H5        1.0  0.08238  0.77457  0.70997  1.0000
  H   H6        1.0  0.91762  0.22543  0.29003  1.0000
  H   H7        1.0  0.15214  0.61078  0.81464  1.0000
  H   H8        1.0  0.84786  0.38923  0.18536  1.0000
  H   H9        1.0  0.09439  0.06100  0.54083  1.0000
  H   H10       1.0  0.90561  0.93899  0.45918  1.0000
  H   H11       1.0  0.87299  0.78951  0.91985  1.0000
  H   H12       1.0  0.12701  0.21049  0.08015  1.0000
  H   H13       1.0  0.95031  0.63204  0.02357  1.0000
  H   H14       1.0  0.04970  0.36796  0.97643  1.0000
  H   H15       1.0  0.88652  0.53987  0.60666  1.0000
  H   H16       1.0  0.11348  0.46014  0.39335  1.0000
  H   H17       1.0  0.01760  0.67617  0.54235  1.0000
  H   H18       1.0  0.98239  0.32383  0.45765  1.0000
  H   H19       1.0  0.40507  0.36964  0.04361  1.0000
  H   H20       1.0  0.59494  0.63035  0.95638  1.0000
  H   H21       1.0  0.35982  0.53512  0.92954  1.0000
  H   H22       1.0  0.64020  0.46487  0.07045  1.0000
  H   H23       1.0  0.05360  0.81819  0.06414  1.0000
  H   H24       1.0  0.94641  0.18181  0.93586  1.0000
  H   H25       1.0  0.20888  0.75121  0.96004  1.0000
  H   H26       1.0  0.79112  0.24879  0.03995  1.0000
  H   H27       1.0  0.44085  0.06062  0.16528  1.0000
  H   H28       1.0  0.55912  0.93937  0.83473  1.0000
  H   H29       1.0  0.61340  0.17569  0.24513  1.0000
  H   H30       1.0  0.38659  0.82430  0.75486  1.0000
  H   H31       1.0  0.17052  0.00684  0.31154  1.0000
  H   H32       1.0  0.82947  0.99315  0.68848  1.0000
  H   H33       1.0  0.82030  0.67343  0.76607  1.0000
  H   H34       1.0  0.17970  0.32657  0.23394  1.0000
  H   H35       1.0  0.90050  0.50785  0.85319  1.0000
  H   H36       1.0  0.09952  0.49215  0.14681  1.0000
  H   H37       1.0  0.65045  0.28839  0.41856  1.0000
  H   H38       1.0  0.34955  0.71160  0.58144  1.0000
  H   H39       1.0  0.65108  0.38853  0.59093  1.0000
  H   H40       1.0  0.34893  0.61147  0.40907  1.0000
  C   C1        1.0  0.11742  0.46941  0.62911  1.0000
  C   C2        1.0  0.88258  0.53059  0.37089  1.0000
  C   C3        1.0  0.56354  0.42656  0.84272  1.0000
  C   C4        1.0  0.43647  0.57343  0.15727  1.0000
  C   C5        1.0  0.11682  0.95456  0.85474  1.0000
  C   C6        1.0  0.88317  0.04545  0.14527  1.0000
  C   C7        1.0  0.04648  0.68078  0.80102  1.0000
  C   C8        1.0  0.95352  0.31923  0.19898  1.0000
  C   C9        1.0  0.20730  0.08525  0.47015  1.0000
  C   C10       1.0  0.79269  0.91475  0.52986  1.0000
  C   C11       1.0  0.98172  0.72504  0.93115  1.0000
  C   C12       1.0  0.01828  0.27497  0.06885  1.0000
  C   C13       1.0  0.98339  0.57907  0.62835  1.0000
  C   C14       1.0  0.01661  0.42094  0.37165  1.0000
  C   C15       1.0  0.45762  0.46503  0.96606  1.0000
  C   C16       1.0  0.54239  0.53496  0.03393  1.0000
  C   C17       1.0  0.48333  0.34234  0.78776  1.0000
  C   C18       1.0  0.51668  0.65766  0.21223  1.0000
  C   C19       1.0  0.44283  0.18118  0.43167  1.0000
  C   C20       1.0  0.55717  0.81881  0.56833  1.0000
  C   C21       1.0  0.09371  0.80740  0.95909  1.0000
  C   C22       1.0  0.90630  0.19260  0.04091  1.0000
  C   C23       1.0  0.39981  0.08566  0.26250  1.0000
  C   C24       1.0  0.60017  0.91433  0.73751  1.0000
  C   C25       1.0  0.49653  0.15094  0.30611  1.0000
  C   C26       1.0  0.50346  0.84905  0.69389  1.0000
  C   C27       1.0  0.25188  0.05283  0.34515  1.0000
  C   C28       1.0  0.74810  0.94716  0.65486  1.0000
  C   C29       1.0  0.92910  0.60745  0.76845  1.0000
  C   C30       1.0  0.07090  0.39255  0.23155  1.0000
  C   C31       1.0  0.53854  0.24903  0.48286  1.0000
  C   C32       1.0  0.46146  0.75097  0.51714  1.0000
  N   N1        1.0  0.48289  0.26246  0.60509  1.0000
  N   N2        1.0  0.51711  0.73755  0.39491  1.0000
  N   N3        1.0  0.29956  0.14817  0.51255  1.0000
  N   N4        1.0  0.70044  0.85182  0.48745  1.0000
  N   N5        1.0  0.55795  0.32934  0.65923  1.0000
  N   N6        1.0  0.44206  0.67066  0.34076  1.0000
  O   O1        1.0  0.23923  0.01239  0.85404  1.0000
  O   O2        1.0  0.76077  0.98761  0.14596  1.0000
  O   O3        1.0  0.02389  0.01483  0.77640  1.0000
  O   O4        1.0  0.97610  0.98517  0.22362  1.0000
  O   O5        1.0  0.35999  0.28564  0.85273  1.0000
  O   O6        1.0  0.64001  0.71438  0.14726  1.0000
  O   O7        1.0  0.25158  0.50223  0.55635  1.0000
  O   O8        1.0  0.74842  0.49778  0.44364  1.0000
  O   O9        1.0  0.08454  0.34333  0.70721  1.0000
  O   O10       1.0  0.91546  0.65668  0.29278  1.0000
