data_image0
_chemical_formula_structural       Dy2H24C40S4N8O18
_chemical_formula_sum              "Dy2 H24 C40 S4 N8 O18"
_cell_length_a       9.68458
_cell_length_b       10.5388
_cell_length_c       12.1159
_cell_angle_alpha    96.5169
_cell_angle_beta     91.7986
_cell_angle_gamma    116.486

_space_group_name_H-M_alt    "P 1"
_space_group_IT_number       1

loop_
  _space_group_symop_operation_xyz
  'x, y, z'

loop_
  _atom_site_type_symbol
  _atom_site_label
  _atom_site_symmetry_multiplicity
  _atom_site_fract_x
  _atom_site_fract_y
  _atom_site_fract_z
  _atom_site_occupancy
  Dy  Dy1       1.0  0.95069  0.75019  0.60642  1.0000
  Dy  Dy2       1.0  0.04931  0.24981  0.39358  1.0000
  H   H1        1.0  0.73304  0.16158  0.08071  1.0000
  H   H2        1.0  0.26696  0.83843  0.91929  1.0000
  H   H3        1.0  0.65352  0.46068  0.66684  1.0000
  H   H4        1.0  0.34647  0.53931  0.33315  1.0000
  H   H5        1.0  0.44295  0.37024  0.79263  1.0000
  H   H6        1.0  0.55704  0.62976  0.20738  1.0000
  H   H7        1.0  0.42359  0.54760  0.94414  1.0000
  H   H8        1.0  0.57641  0.45240  0.05587  1.0000
  H   H9        1.0  0.96522  0.25067  0.97468  1.0000
  H   H10       1.0  0.03477  0.74933  0.02532  1.0000
  H   H11       1.0  0.18130  0.30254  0.85109  1.0000
  H   H12       1.0  0.81870  0.69746  0.14891  1.0000
  H   H13       1.0  0.18738  0.10044  0.72616  1.0000
  H   H14       1.0  0.81261  0.89955  0.27384  1.0000
  H   H15       1.0  0.34395  0.77272  0.20435  1.0000
  H   H16       1.0  0.65606  0.22728  0.79566  1.0000
  H   H17       1.0  0.20956  0.80782  0.36854  1.0000
  H   H18       1.0  0.79045  0.19219  0.63147  1.0000
  H   H19       1.0  0.53168  0.25750  0.41812  1.0000
  H   H20       1.0  0.46832  0.74250  0.58188  1.0000
  H   H21       1.0  0.67387  0.66071  0.44665  1.0000
  H   H22       1.0  0.32614  0.33929  0.55334  1.0000
  H   H23       1.0  0.72209  0.53343  0.42694  1.0000
  H   H24       1.0  0.27792  0.46658  0.57306  1.0000
  C   C1        1.0  0.64397  0.53327  0.73415  1.0000
  C   C2        1.0  0.35602  0.46672  0.26584  1.0000
  C   C3        1.0  0.52505  0.48345  0.80503  1.0000
  C   C4        1.0  0.47495  0.51655  0.19496  1.0000
  C   C5        1.0  0.51629  0.57924  0.88906  1.0000
  C   C6        1.0  0.48370  0.42076  0.11094  1.0000
  C   C7        1.0  0.62864  0.72355  0.90277  1.0000
  C   C8        1.0  0.37136  0.27645  0.09723  1.0000
  C   C9        1.0  0.62827  0.83232  0.98520  1.0000
  C   C10       1.0  0.37172  0.16768  0.01480  1.0000
  C   C11       1.0  0.73206  0.97653  0.98316  1.0000
  C   C12       1.0  0.26793  0.02346  0.01683  1.0000
  C   C13       1.0  0.85500  0.02289  0.91287  1.0000
  C   C14       1.0  0.14499  0.97711  0.08713  1.0000
  C   C15       1.0  0.97011  0.16539  0.91743  1.0000
  C   C16       1.0  0.02988  0.83460  0.08257  1.0000
  C   C17       1.0  0.08969  0.19403  0.84981  1.0000
  C   C18       1.0  0.91031  0.80596  0.15019  1.0000
  C   C19       1.0  0.09252  0.08069  0.77845  1.0000
  C   C20       1.0  0.90748  0.91930  0.22155  1.0000
  C   C21       1.0  0.86422  0.91431  0.83622  1.0000
  C   C22       1.0  0.13577  0.08568  0.16377  1.0000
  C   C23       1.0  0.74618  0.76594  0.82748  1.0000
  C   C24       1.0  0.25381  0.23405  0.17252  1.0000
  C   C25       1.0  0.57916  0.95567  0.11881  1.0000
  C   C26       1.0  0.42084  0.04433  0.88119  1.0000
  C   C27       1.0  0.51147  0.99312  0.21597  1.0000
  C   C28       1.0  0.48853  0.00688  0.78404  1.0000
  C   C29       1.0  0.38315  0.87915  0.25136  1.0000
  C   C30       1.0  0.61686  0.12085  0.74865  1.0000
  C   C31       1.0  0.30758  0.89844  0.34250  1.0000
  C   C32       1.0  0.69243  0.10157  0.65750  1.0000
  C   C33       1.0  0.36083  0.03605  0.40104  1.0000
  C   C34       1.0  0.63917  0.96395  0.59896  1.0000
  C   C35       1.0  0.48861  0.15146  0.37015  1.0000
  C   C36       1.0  0.51140  0.84855  0.62985  1.0000
  C   C37       1.0  0.56437  0.13137  0.27876  1.0000
  C   C38       1.0  0.43564  0.86864  0.72123  1.0000
  C   C39       1.0  0.95360  0.45401  0.54358  1.0000
  C   C40       1.0  0.04641  0.54599  0.45640  1.0000
  S   S1        1.0  0.73521  0.28835  0.25659  1.0000
  S   S2        1.0  0.26480  0.71166  0.74341  1.0000
  S   S3        1.0  0.25952  0.07231  0.50994  1.0000
  S   S4        1.0  0.74049  0.92770  0.49006  1.0000
  N   N1        1.0  0.75156  0.67006  0.74449  1.0000
  N   N2        1.0  0.24843  0.32994  0.25551  1.0000
  N   N3        1.0  0.98257  0.94534  0.77019  1.0000
  N   N4        1.0  0.01742  0.05465  0.22982  1.0000
  N   N5        1.0  0.53552  0.82044  0.07053  1.0000
  N   N6        1.0  0.46447  0.17956  0.92947  1.0000
  N   N7        1.0  0.69627  0.05227  0.06636  1.0000
  N   N8        1.0  0.30373  0.94773  0.93364  1.0000
  O   O1        1.0  0.74568  0.40403  0.33990  1.0000
  O   O2        1.0  0.25434  0.59597  0.66010  1.0000
  O   O3        1.0  0.86169  0.24761  0.27357  1.0000
  O   O4        1.0  0.13831  0.75239  0.72643  1.0000
  O   O5        1.0  0.72275  0.31386  0.14123  1.0000
  O   O6        1.0  0.27725  0.68615  0.85877  1.0000
  O   O7        1.0  0.18829  0.94493  0.56619  1.0000
  O   O8        1.0  0.81171  0.05507  0.43381  1.0000
  O   O9        1.0  0.13931  0.09761  0.45155  1.0000
  O   O10       1.0  0.86069  0.90239  0.54846  1.0000
  O   O11       1.0  0.37042  0.20023  0.58400  1.0000
  O   O12       1.0  0.62958  0.79977  0.41600  1.0000
  O   O13       1.0  0.88974  0.50722  0.61051  1.0000
  O   O14       1.0  0.11025  0.49277  0.38949  1.0000
  O   O15       1.0  0.94881  0.33142  0.54013  1.0000
  O   O16       1.0  0.05119  0.66859  0.45987  1.0000
  O   O17       1.0  0.72204  0.60893  0.48307  1.0000
  O   O18       1.0  0.27797  0.39108  0.51692  1.0000
