data_image0
_chemical_formula_structural       Zn2H40C32N6O10
_chemical_formula_sum              "Zn2 H40 C32 N6 O10"
_cell_length_a       8.83382
_cell_length_b       9.60048
_cell_length_c       10.897
_cell_angle_alpha    88.0509
_cell_angle_beta     79.269
_cell_angle_gamma    70.8334

_space_group_name_H-M_alt    "P 1"
_space_group_IT_number       1

loop_
  _space_group_symop_operation_xyz
  'x, y, z'

loop_
  _atom_site_type_symbol
  _atom_site_label
  _atom_site_symmetry_multiplicity
  _atom_site_fract_x
  _atom_site_fract_y
  _atom_site_fract_z
  _atom_site_occupancy
  Zn  Zn1       1.0  0.81170  0.31521  0.74723  1.0000
  Zn  Zn2       1.0  0.18830  0.68479  0.25277  1.0000
  H   H1        1.0  0.98343  0.46248  0.91374  1.0000
  H   H2        1.0  0.01657  0.53752  0.08626  1.0000
  H   H3        1.0  0.23383  0.54096  0.88237  1.0000
  H   H4        1.0  0.76617  0.45905  0.11763  1.0000
  H   H5        1.0  0.40564  0.51170  0.66736  1.0000
  H   H6        1.0  0.59436  0.48830  0.33264  1.0000
  H   H7        1.0  0.32114  0.40448  0.49360  1.0000
  H   H8        1.0  0.67887  0.59553  0.50641  1.0000
  H   H9        1.0  0.13193  0.28156  0.42660  1.0000
  H   H10       1.0  0.86807  0.71844  0.57340  1.0000
  H   H11       1.0  0.55703  0.20967  0.41363  1.0000
  H   H12       1.0  0.44297  0.79033  0.58637  1.0000
  H   H13       1.0  0.73506  0.05362  0.39086  1.0000
  H   H14       1.0  0.26494  0.94638  0.60914  1.0000
  H   H15       1.0  0.45136  0.10441  0.61564  1.0000
  H   H16       1.0  0.54864  0.89559  0.38436  1.0000
  H   H17       1.0  0.62385  0.94476  0.58765  1.0000
  H   H18       1.0  0.37615  0.05524  0.41235  1.0000
  H   H19       1.0  0.92774  0.14891  0.40527  1.0000
  H   H20       1.0  0.07226  0.85109  0.59473  1.0000
  H   H21       1.0  0.04401  0.78095  0.82323  1.0000
  H   H22       1.0  0.95599  0.21905  0.17677  1.0000
  H   H23       1.0  0.05937  0.89532  0.94161  1.0000
  H   H24       1.0  0.94063  0.10468  0.05839  1.0000
  H   H25       1.0  0.86481  0.77646  0.03288  1.0000
  H   H26       1.0  0.13519  0.22354  0.96712  1.0000
  H   H27       1.0  0.75682  0.96470  0.02031  1.0000
  H   H28       1.0  0.24318  0.03530  0.97969  1.0000
  H   H29       1.0  0.79214  0.72621  0.82657  1.0000
  H   H30       1.0  0.20786  0.27379  0.17343  1.0000
  H   H31       1.0  0.66443  0.91107  0.82995  1.0000
  H   H32       1.0  0.33557  0.08893  0.17005  1.0000
  H   H33       1.0  0.63066  0.69005  0.03564  1.0000
  H   H34       1.0  0.36934  0.30995  0.96436  1.0000
  H   H35       1.0  0.49573  0.87106  0.03292  1.0000
  H   H36       1.0  0.50427  0.12894  0.96708  1.0000
  H   H37       1.0  0.41472  0.80795  0.83939  1.0000
  H   H38       1.0  0.58528  0.19205  0.16061  1.0000
  H   H39       1.0  0.39024  0.68388  0.96199  1.0000
  H   H40       1.0  0.60976  0.31612  0.03801  1.0000
  C   C1        1.0  0.06499  0.44923  0.82335  1.0000
  C   C2        1.0  0.93501  0.55078  0.17666  1.0000
  C   C3        1.0  0.20247  0.49432  0.80472  1.0000
  C   C4        1.0  0.79753  0.50568  0.19528  1.0000
  C   C5        1.0  0.29784  0.47719  0.68528  1.0000
  C   C6        1.0  0.70216  0.52281  0.31472  1.0000
  C   C7        1.0  0.25352  0.41546  0.58924  1.0000
  C   C8        1.0  0.74648  0.58454  0.41076  1.0000
  C   C9        1.0  0.11601  0.37039  0.61638  1.0000
  C   C10       1.0  0.88399  0.62961  0.38362  1.0000
  C   C11       1.0  0.06027  0.30486  0.52150  1.0000
  C   C12       1.0  0.93973  0.69514  0.47850  1.0000
  C   C13       1.0  0.71153  0.19863  0.54238  1.0000
  C   C14       1.0  0.28847  0.80137  0.45762  1.0000
  C   C15       1.0  0.63815  0.12281  0.46360  1.0000
  C   C16       1.0  0.36185  0.87718  0.53640  1.0000
  C   C17       1.0  0.54180  0.03323  0.54054  1.0000
  C   C18       1.0  0.45820  0.96677  0.45946  1.0000
  C   C19       1.0  0.93625  0.01167  0.79830  1.0000
  C   C20       1.0  0.06375  0.98833  0.20170  1.0000
  C   C21       1.0  0.97751  0.88072  0.88212  1.0000
  C   C22       1.0  0.02249  0.11928  0.11788  1.0000
  C   C23       1.0  0.82537  0.86211  0.96509  1.0000
  C   C24       1.0  0.17463  0.13789  0.03491  1.0000
  C   C25       1.0  0.71585  0.81999  0.89058  1.0000
  C   C26       1.0  0.28415  0.18000  0.10942  1.0000
  C   C27       1.0  0.57876  0.77705  0.97250  1.0000
  C   C28       1.0  0.42124  0.22295  0.02750  1.0000
  C   C29       1.0  0.47968  0.72043  0.89682  1.0000
  C   C30       1.0  0.52032  0.27957  0.10318  1.0000
  C   C31       1.0  0.58923  0.59079  0.81143  1.0000
  C   C32       1.0  0.41077  0.40921  0.18857  1.0000
  N   N1        1.0  0.02366  0.38746  0.73254  1.0000
  N   N2        1.0  0.97634  0.61254  0.26746  1.0000
  N   N3        1.0  0.92421  0.27962  0.55745  1.0000
  N   N4        1.0  0.07579  0.72038  0.44255  1.0000
  N   N5        1.0  0.85599  0.21751  0.48487  1.0000
  N   N6        1.0  0.14400  0.78249  0.51513  1.0000
  O   O1        1.0  0.64628  0.24540  0.65129  1.0000
  O   O2        1.0  0.35372  0.75460  0.34871  1.0000
  O   O3        1.0  0.86686  0.13920  0.85360  1.0000
  O   O4        1.0  0.13314  0.86080  0.14640  1.0000
  O   O5        1.0  0.96907  0.99338  0.68068  1.0000
  O   O6        1.0  0.03093  0.00662  0.31932  1.0000
  O   O7        1.0  0.60600  0.59997  0.69449  1.0000
  O   O8        1.0  0.39400  0.40003  0.30551  1.0000
  O   O9        1.0  0.66457  0.47345  0.86656  1.0000
  O   O10       1.0  0.33543  0.52655  0.13344  1.0000
