data_image0
_chemical_formula_structural       Yb2H24C40S4N8O18
_chemical_formula_sum              "Yb2 H24 C40 S4 N8 O18"
_cell_length_a       9.65801
_cell_length_b       10.4494
_cell_length_c       12.0993
_cell_angle_alpha    96.7536
_cell_angle_beta     91.8298
_cell_angle_gamma    115.676

_space_group_name_H-M_alt    "P 1"
_space_group_IT_number       1

loop_
  _space_group_symop_operation_xyz
  'x, y, z'

loop_
  _atom_site_type_symbol
  _atom_site_label
  _atom_site_symmetry_multiplicity
  _atom_site_fract_x
  _atom_site_fract_y
  _atom_site_fract_z
  _atom_site_occupancy
  Yb  Yb1       1.0  0.45151  0.74913  0.60593  1.0000
  Yb  Yb2       1.0  0.54849  0.25087  0.39406  1.0000
  H   H1        1.0  0.23139  0.15859  0.08303  1.0000
  H   H2        1.0  0.76861  0.84142  0.91697  1.0000
  H   H3        1.0  0.68513  0.09725  0.72543  1.0000
  H   H4        1.0  0.31488  0.90276  0.27457  1.0000
  H   H5        1.0  0.67929  0.29948  0.85394  1.0000
  H   H6        1.0  0.32070  0.70052  0.14606  1.0000
  H   H7        1.0  0.46337  0.24822  0.97725  1.0000
  H   H8        1.0  0.53664  0.75178  0.02274  1.0000
  H   H9        1.0  0.92596  0.54431  0.93882  1.0000
  H   H10       1.0  0.07404  0.45570  0.06118  1.0000
  H   H11       1.0  0.94567  0.36859  0.78360  1.0000
  H   H12       1.0  0.05434  0.63142  0.21641  1.0000
  H   H13       1.0  0.15578  0.46008  0.65876  1.0000
  H   H14       1.0  0.84423  0.53992  0.34125  1.0000
  H   H15       1.0  0.83934  0.76962  0.19911  1.0000
  H   H16       1.0  0.16067  0.23039  0.80089  1.0000
  H   H17       1.0  0.70216  0.80449  0.36250  1.0000
  H   H18       1.0  0.29785  0.19550  0.63750  1.0000
  H   H19       1.0  0.02856  0.25197  0.42200  1.0000
  H   H20       1.0  0.97143  0.74803  0.57800  1.0000
  H   H21       1.0  0.18146  0.66500  0.44750  1.0000
  H   H22       1.0  0.81852  0.33499  0.55250  1.0000
  H   H23       1.0  0.22779  0.53472  0.42935  1.0000
  H   H24       1.0  0.77221  0.46527  0.57065  1.0000
  C   C1        1.0  0.59099  0.07766  0.77823  1.0000
  C   C2        1.0  0.40900  0.92234  0.22178  1.0000
  C   C3        1.0  0.58809  0.19104  0.85140  1.0000
  C   C4        1.0  0.41191  0.80896  0.14860  1.0000
  C   C5        1.0  0.46873  0.16265  0.91909  1.0000
  C   C6        1.0  0.53127  0.83735  0.08091  1.0000
  C   C7        1.0  0.35472  0.02014  0.91332  1.0000
  C   C8        1.0  0.64528  0.97987  0.08668  1.0000
  C   C9        1.0  0.23189  0.97350  0.98321  1.0000
  C   C10       1.0  0.76811  0.02650  0.01679  1.0000
  C   C11       1.0  0.12893  0.82909  0.98355  1.0000
  C   C12       1.0  0.87107  0.17092  0.01645  1.0000
  C   C13       1.0  0.13029  0.72064  0.89974  1.0000
  C   C14       1.0  0.86971  0.27937  0.10026  1.0000
  C   C15       1.0  0.01868  0.57649  0.88405  1.0000
  C   C16       1.0  0.98132  0.42352  0.11595  1.0000
  C   C17       1.0  0.02765  0.48157  0.79808  1.0000
  C   C18       1.0  0.97236  0.51845  0.20192  1.0000
  C   C19       1.0  0.14635  0.53204  0.72759  1.0000
  C   C20       1.0  0.85366  0.46796  0.27242  1.0000
  C   C21       1.0  0.24761  0.76352  0.82476  1.0000
  C   C22       1.0  0.75239  0.23648  0.17524  1.0000
  C   C23       1.0  0.36452  0.91172  0.83527  1.0000
  C   C24       1.0  0.63547  0.08827  0.16474  1.0000
  C   C25       1.0  0.07795  0.95192  0.11834  1.0000
  C   C26       1.0  0.92206  0.04809  0.88166  1.0000
  C   C27       1.0  0.00918  0.98896  0.21567  1.0000
  C   C28       1.0  0.99082  0.01104  0.78433  1.0000
  C   C29       1.0  0.87905  0.87551  0.24824  1.0000
  C   C30       1.0  0.12095  0.12449  0.75175  1.0000
  C   C31       1.0  0.80196  0.89471  0.33897  1.0000
  C   C32       1.0  0.19805  0.10529  0.66103  1.0000
  C   C33       1.0  0.85575  0.03166  0.40030  1.0000
  C   C34       1.0  0.14425  0.96833  0.59969  1.0000
  C   C35       1.0  0.98536  0.14634  0.37230  1.0000
  C   C36       1.0  0.01464  0.85366  0.62770  1.0000
  C   C37       1.0  0.06239  0.12643  0.28118  1.0000
  C   C38       1.0  0.93761  0.87357  0.71882  1.0000
  C   C39       1.0  0.54299  0.54452  0.45510  1.0000
  C   C40       1.0  0.45700  0.45546  0.54490  1.0000
  S   S1        1.0  0.23256  0.28342  0.26104  1.0000
  S   S2        1.0  0.76744  0.71657  0.73896  1.0000
  S   S3        1.0  0.75303  0.06876  0.50857  1.0000
  S   S4        1.0  0.24697  0.93123  0.49142  1.0000
  N   N1        1.0  0.48196  0.94245  0.76875  1.0000
  N   N2        1.0  0.51804  0.05754  0.23125  1.0000
  N   N3        1.0  0.25369  0.66868  0.73990  1.0000
  N   N4        1.0  0.74631  0.33132  0.26010  1.0000
  N   N5        1.0  0.03549  0.81672  0.06854  1.0000
  N   N6        1.0  0.96451  0.18329  0.93147  1.0000
  N   N7        1.0  0.19508  0.04897  0.06720  1.0000
  N   N8        1.0  0.80492  0.95103  0.93280  1.0000
  O   O1        1.0  0.35983  0.24191  0.27639  1.0000
  O   O2        1.0  0.64016  0.75808  0.72360  1.0000
  O   O3        1.0  0.24190  0.39803  0.34641  1.0000
  O   O4        1.0  0.75812  0.60197  0.65360  1.0000
  O   O5        1.0  0.21905  0.31096  0.14630  1.0000
  O   O6        1.0  0.78095  0.68904  0.85371  1.0000
  O   O7        1.0  0.63547  0.09809  0.44960  1.0000
  O   O8        1.0  0.36453  0.90191  0.55038  1.0000
  O   O9        1.0  0.68011  0.94049  0.56315  1.0000
  O   O10       1.0  0.31987  0.05951  0.43684  1.0000
  O   O11       1.0  0.86297  0.19514  0.58436  1.0000
  O   O12       1.0  0.13702  0.80486  0.41563  1.0000
  O   O13       1.0  0.54641  0.66762  0.45881  1.0000
  O   O14       1.0  0.45358  0.33236  0.54119  1.0000
  O   O15       1.0  0.60315  0.48832  0.38601  1.0000
  O   O16       1.0  0.39685  0.51166  0.61398  1.0000
  O   O17       1.0  0.22877  0.61238  0.48487  1.0000
  O   O18       1.0  0.77122  0.38762  0.51513  1.0000
