data_image0
_chemical_formula_structural       Gd4H28C32O28
_chemical_formula_sum              "Gd4 H28 C32 O28"
_cell_length_a       7.22316
_cell_length_b       7.67295
_cell_length_c       17.372
_cell_angle_alpha    92.1347
_cell_angle_beta     90
_cell_angle_gamma    90.0001

_space_group_name_H-M_alt    "P 1"
_space_group_IT_number       1

loop_
  _space_group_symop_operation_xyz
  'x, y, z'

loop_
  _atom_site_type_symbol
  _atom_site_label
  _atom_site_symmetry_multiplicity
  _atom_site_fract_x
  _atom_site_fract_y
  _atom_site_fract_z
  _atom_site_occupancy
  Gd  Gd1       1.0  0.50797  0.85632  0.74645  1.0000
  Gd  Gd2       1.0  0.00797  0.64369  0.75355  1.0000
  Gd  Gd3       1.0  0.49203  0.14368  0.25355  1.0000
  Gd  Gd4       1.0  0.99203  0.35631  0.24645  1.0000
  H   H1        1.0  0.18310  0.03685  0.80220  1.0000
  H   H2        1.0  0.68310  0.46315  0.69780  1.0000
  H   H3        1.0  0.81690  0.96315  0.19780  1.0000
  H   H4        1.0  0.31690  0.53685  0.30220  1.0000
  H   H5        1.0  0.30963  0.20801  0.80788  1.0000
  H   H6        1.0  0.80963  0.29199  0.69212  1.0000
  H   H7        1.0  0.69037  0.79199  0.19212  1.0000
  H   H8        1.0  0.19037  0.70801  0.30788  1.0000
  H   H9        1.0  0.66287  0.03466  0.52059  1.0000
  H   H10       1.0  0.16287  0.46534  0.97941  1.0000
  H   H11       1.0  0.33713  0.96534  0.47941  1.0000
  H   H12       1.0  0.83713  0.53466  0.02059  1.0000
  H   H13       1.0  0.29443  0.29826  0.55496  1.0000
  H   H14       1.0  0.79442  0.20175  0.94504  1.0000
  H   H15       1.0  0.70558  0.70175  0.44504  1.0000
  H   H16       1.0  0.20558  0.79825  0.05496  1.0000
  H   H17       1.0  0.48783  0.24757  0.61230  1.0000
  H   H18       1.0  0.98783  0.25243  0.88770  1.0000
  H   H19       1.0  0.51217  0.75243  0.38770  1.0000
  H   H20       1.0  0.01217  0.74757  0.11230  1.0000
  H   H21       1.0  0.60122  0.32591  0.48704  1.0000
  H   H22       1.0  0.10122  0.17409  0.01297  1.0000
  H   H23       1.0  0.39878  0.67409  0.51296  1.0000
  H   H24       1.0  0.89878  0.82591  0.98703  1.0000
  H   H25       1.0  0.66786  0.49266  0.55440  1.0000
  H   H26       1.0  0.16786  0.00734  0.94561  1.0000
  H   H27       1.0  0.33214  0.50734  0.44560  1.0000
  H   H28       1.0  0.83214  0.99266  0.05440  1.0000
  C   C1        1.0  0.92280  0.97181  0.57306  1.0000
  C   C2        1.0  0.42280  0.52818  0.92694  1.0000
  C   C3        1.0  0.07720  0.02819  0.42694  1.0000
  C   C4        1.0  0.57720  0.47181  0.07306  1.0000
  C   C5        1.0  0.11434  0.95088  0.56108  1.0000
  C   C6        1.0  0.61434  0.54912  0.93892  1.0000
  C   C7        1.0  0.88566  0.04911  0.43892  1.0000
  C   C8        1.0  0.38566  0.45088  0.06108  1.0000
  C   C9        1.0  0.81156  0.02064  0.51180  1.0000
  C   C10       1.0  0.31156  0.47936  0.98820  1.0000
  C   C11       1.0  0.18844  0.97937  0.48820  1.0000
  C   C12       1.0  0.68844  0.52063  0.01180  1.0000
  C   C13       1.0  0.24484  0.90581  0.62364  1.0000
  C   C14       1.0  0.74484  0.59419  0.87636  1.0000
  C   C15       1.0  0.75516  0.09419  0.37636  1.0000
  C   C16       1.0  0.25516  0.40581  0.12364  1.0000
  C   C17       1.0  0.82047  0.94531  0.64687  1.0000
  C   C18       1.0  0.32047  0.55469  0.85313  1.0000
  C   C19       1.0  0.17953  0.05469  0.35313  1.0000
  C   C20       1.0  0.67953  0.44531  0.14687  1.0000
  C   C21       1.0  0.35252  0.48287  0.64576  1.0000
  C   C22       1.0  0.85252  0.01713  0.85424  1.0000
  C   C23       1.0  0.64747  0.51713  0.35424  1.0000
  C   C24       1.0  0.14748  0.98287  0.14576  1.0000
  C   C25       1.0  0.41731  0.35429  0.58346  1.0000
  C   C26       1.0  0.91731  0.14571  0.91655  1.0000
  C   C27       1.0  0.58269  0.64571  0.41654  1.0000
  C   C28       1.0  0.08269  0.85429  0.08346  1.0000
  C   C29       1.0  0.54783  0.43285  0.52459  1.0000
  C   C30       1.0  0.04783  0.06715  0.97541  1.0000
  C   C31       1.0  0.45217  0.56716  0.47541  1.0000
  C   C32       1.0  0.95218  0.93285  0.02459  1.0000
  O   O1        1.0  0.18187  0.85024  0.68728  1.0000
  O   O2        1.0  0.68187  0.64976  0.81272  1.0000
  O   O3        1.0  0.81813  0.14976  0.31272  1.0000
  O   O4        1.0  0.31813  0.35024  0.18728  1.0000
  O   O5        1.0  0.31003  0.08287  0.79223  1.0000
  O   O6        1.0  0.81003  0.41713  0.70777  1.0000
  O   O7        1.0  0.68997  0.91713  0.20777  1.0000
  O   O8        1.0  0.18997  0.58287  0.29223  1.0000
  O   O9        1.0  0.41747  0.92582  0.61458  1.0000
  O   O10       1.0  0.91747  0.57418  0.88542  1.0000
  O   O11       1.0  0.58253  0.07418  0.38542  1.0000
  O   O12       1.0  0.08253  0.42582  0.11458  1.0000
  O   O13       1.0  0.73729  0.07220  0.67947  1.0000
  O   O14       1.0  0.23729  0.42780  0.82053  1.0000
  O   O15       1.0  0.26271  0.92780  0.32053  1.0000
  O   O16       1.0  0.76271  0.57220  0.17947  1.0000
  O   O17       1.0  0.79905  0.78918  0.67071  1.0000
  O   O18       1.0  0.29905  0.71081  0.82929  1.0000
  O   O19       1.0  0.20095  0.21081  0.32929  1.0000
  O   O20       1.0  0.70095  0.28919  0.17071  1.0000
  O   O21       1.0  0.47607  0.57132  0.68355  1.0000
  O   O22       1.0  0.97607  0.92868  0.81645  1.0000
  O   O23       1.0  0.52393  0.42868  0.31645  1.0000
  O   O24       1.0  0.02393  0.07132  0.18355  1.0000
  O   O25       1.0  0.18022  0.49605  0.65859  1.0000
  O   O26       1.0  0.68022  0.00395  0.84141  1.0000
  O   O27       1.0  0.81978  0.50395  0.34141  1.0000
  O   O28       1.0  0.31978  0.99605  0.15859  1.0000
