data_image0
_chemical_formula_structural       K2H22C18N32O10
_chemical_formula_sum              "K2 H22 C18 N32 O10"
_cell_length_a       7.97048
_cell_length_b       9.7381
_cell_length_c       12.452
_cell_angle_alpha    84.0913
_cell_angle_beta     86.3554
_cell_angle_gamma    69.671

_space_group_name_H-M_alt    "P 1"
_space_group_IT_number       1

loop_
  _space_group_symop_operation_xyz
  'x, y, z'

loop_
  _atom_site_type_symbol
  _atom_site_label
  _atom_site_symmetry_multiplicity
  _atom_site_fract_x
  _atom_site_fract_y
  _atom_site_fract_z
  _atom_site_occupancy
  K   K1        1.0  0.41364  0.52178  0.33153  1.0000
  K   K2        1.0  0.58636  0.47822  0.66847  1.0000
  H   H1        1.0  0.69386  0.82451  0.58238  1.0000
  H   H2        1.0  0.30614  0.17549  0.41762  1.0000
  H   H3        1.0  0.19102  0.92579  0.29372  1.0000
  H   H4        1.0  0.80898  0.07421  0.70628  1.0000
  H   H5        1.0  0.66667  0.01956  0.08087  1.0000
  H   H6        1.0  0.33333  0.98044  0.91913  1.0000
  H   H7        1.0  0.79062  0.73830  0.87276  1.0000
  H   H8        1.0  0.20938  0.26170  0.12724  1.0000
  H   H9        1.0  0.51382  0.92928  0.40039  1.0000
  H   H10       1.0  0.48618  0.07072  0.59962  1.0000
  H   H11       1.0  0.60039  0.73538  0.43776  1.0000
  H   H12       1.0  0.39961  0.26462  0.56224  1.0000
  H   H13       1.0  0.36888  0.83426  0.45815  1.0000
  H   H14       1.0  0.63112  0.16574  0.54185  1.0000
  H   H15       1.0  0.35801  0.70680  0.06766  1.0000
  H   H16       1.0  0.64199  0.29320  0.93234  1.0000
  H   H17       1.0  0.78722  0.30962  0.18878  1.0000
  H   H18       1.0  0.21279  0.69039  0.81122  1.0000
  H   H19       1.0  0.07283  0.43549  0.70465  1.0000
  H   H20       1.0  0.92717  0.56451  0.29535  1.0000
  H   H21       1.0  0.54526  0.80805  0.24928  1.0000
  H   H22       1.0  0.45474  0.19195  0.75072  1.0000
  C   C1        1.0  0.11434  0.59438  0.57409  1.0000
  C   C2        1.0  0.88565  0.40562  0.42591  1.0000
  C   C3        1.0  0.82041  0.73550  0.59325  1.0000
  C   C4        1.0  0.17959  0.26450  0.40675  1.0000
  C   C5        1.0  0.76030  0.14372  0.30754  1.0000
  C   C6        1.0  0.23970  0.85629  0.69246  1.0000
  C   C7        1.0  0.05980  0.01250  0.28612  1.0000
  C   C8        1.0  0.94020  0.98750  0.71388  1.0000
  C   C9        1.0  0.03239  0.74008  0.15219  1.0000
  C   C10       1.0  0.96761  0.25991  0.84781  1.0000
  C   C11       1.0  0.76691  0.91838  0.11334  1.0000
  C   C12       1.0  0.23309  0.08162  0.88666  1.0000
  C   C13       1.0  0.63027  0.57072  0.07744  1.0000
  C   C14       1.0  0.36974  0.42928  0.92255  1.0000
  C   C15       1.0  0.70892  0.70199  0.93455  1.0000
  C   C16       1.0  0.29108  0.29801  0.06545  1.0000
  C   C17       1.0  0.48490  0.82609  0.40368  1.0000
  C   C18       1.0  0.51511  0.17391  0.59632  1.0000
  N   N1        1.0  0.02512  0.53593  0.65191  1.0000
  N   N2        1.0  0.97488  0.46407  0.34808  1.0000
  N   N3        1.0  0.84781  0.62162  0.66352  1.0000
  N   N4        1.0  0.15219  0.37838  0.33648  1.0000
  N   N5        1.0  0.97760  0.72593  0.53490  1.0000
  N   N6        1.0  0.02240  0.27407  0.46510  1.0000
  N   N7        1.0  0.01277  0.81438  0.45075  1.0000
  N   N8        1.0  0.98723  0.18562  0.54925  1.0000
  N   N9        1.0  0.87364  0.92264  0.42645  1.0000
  N   N10       1.0  0.12636  0.07737  0.57355  1.0000
  N   N11       1.0  0.90386  0.01368  0.34387  1.0000
  N   N12       1.0  0.09614  0.98632  0.65613  1.0000
  N   N13       1.0  0.84681  0.20785  0.23093  1.0000
  N   N14       1.0  0.15319  0.79215  0.76907  1.0000
  N   N15       1.0  0.02604  0.12992  0.21848  1.0000
  N   N16       1.0  0.97397  0.87008  0.78152  1.0000
  N   N17       1.0  0.89890  0.70975  0.21033  1.0000
  N   N18       1.0  0.10110  0.29025  0.78967  1.0000
  N   N19       1.0  0.73799  0.82004  0.18493  1.0000
  N   N20       1.0  0.26201  0.17996  0.81507  1.0000
  N   N21       1.0  0.94859  0.87513  0.08880  1.0000
  N   N22       1.0  0.05141  0.12487  0.91120  1.0000
  N   N23       1.0  0.04752  0.93870  0.02230  1.0000
  N   N24       1.0  0.95248  0.06130  0.97770  1.0000
  N   N25       1.0  0.48912  0.68373  0.03646  1.0000
  N   N26       1.0  0.51088  0.31627  0.96354  1.0000
  N   N27       1.0  0.53626  0.76342  0.94984  1.0000
  N   N28       1.0  0.46374  0.23658  0.05016  1.0000
  N   N29       1.0  0.77463  0.58245  0.01039  1.0000
  N   N30       1.0  0.22537  0.41755  0.98961  1.0000
  N   N31       1.0  0.94139  0.48508  0.03040  1.0000
  N   N32       1.0  0.05861  0.51492  0.96960  1.0000
  O   O1        1.0  0.27321  0.54953  0.54253  1.0000
  O   O2        1.0  0.72679  0.45046  0.45747  1.0000
  O   O3        1.0  0.60298  0.18420  0.33949  1.0000
  O   O4        1.0  0.39702  0.81580  0.66051  1.0000
  O   O5        1.0  0.19753  0.66929  0.15055  1.0000
  O   O6        1.0  0.80247  0.33071  0.84945  1.0000
  O   O7        1.0  0.63579  0.47837  0.15506  1.0000
  O   O8        1.0  0.36421  0.52163  0.84494  1.0000
  O   O9        1.0  0.44556  0.79734  0.29949  1.0000
  O   O10       1.0  0.55444  0.20266  0.70051  1.0000
