data_image0
_chemical_formula_structural       Zn2H30C40N4O10
_chemical_formula_sum              "Zn2 H30 C40 N4 O10"
_cell_length_a       8.54831
_cell_length_b       9.84553
_cell_length_c       11.5005
_cell_angle_alpha    72.0125
_cell_angle_beta     78.2146
_cell_angle_gamma    70.0205

_space_group_name_H-M_alt    "P 1"
_space_group_IT_number       1

loop_
  _space_group_symop_operation_xyz
  'x, y, z'

loop_
  _atom_site_type_symbol
  _atom_site_label
  _atom_site_symmetry_multiplicity
  _atom_site_fract_x
  _atom_site_fract_y
  _atom_site_fract_z
  _atom_site_occupancy
  Zn  Zn1       1.0  0.56574  0.54952  0.32817  1.0000
  Zn  Zn2       1.0  0.43426  0.45048  0.67183  1.0000
  H   H1        1.0  0.10422  0.82814  0.62041  1.0000
  H   H2        1.0  0.89578  0.17186  0.37959  1.0000
  H   H3        1.0  0.60778  0.95672  0.51852  1.0000
  H   H4        1.0  0.39222  0.04328  0.48148  1.0000
  H   H5        1.0  0.01202  0.64810  0.35200  1.0000
  H   H6        1.0  0.98798  0.35190  0.64800  1.0000
  H   H7        1.0  0.66983  0.03713  0.66217  1.0000
  H   H8        1.0  0.33016  0.96287  0.33783  1.0000
  H   H9        1.0  0.60386  0.15645  0.32505  1.0000
  H   H10       1.0  0.39614  0.84355  0.67495  1.0000
  H   H11       1.0  0.42833  0.21512  0.24223  1.0000
  H   H12       1.0  0.57167  0.78488  0.75777  1.0000
  H   H13       1.0  0.43662  0.31862  0.34145  1.0000
  H   H14       1.0  0.56338  0.68139  0.65854  1.0000
  H   H15       1.0  0.76339  0.71898  0.08279  1.0000
  H   H16       1.0  0.23659  0.28103  0.91720  1.0000
  H   H17       1.0  0.90746  0.76417  0.86856  1.0000
  H   H18       1.0  0.09253  0.23583  0.13144  1.0000
  H   H19       1.0  0.94038  0.59565  0.73815  1.0000
  H   H20       1.0  0.05962  0.40435  0.26184  1.0000
  H   H21       1.0  0.82182  0.38107  0.81352  1.0000
  H   H22       1.0  0.17818  0.61893  0.18648  1.0000
  H   H23       1.0  0.60590  0.23333  0.93391  1.0000
  H   H24       1.0  0.39411  0.76666  0.06609  1.0000
  H   H25       1.0  0.57404  0.13582  0.09055  1.0000
  H   H26       1.0  0.42596  0.86418  0.90945  1.0000
  H   H27       1.0  0.86915  0.05140  0.20183  1.0000
  H   H28       1.0  0.13086  0.94860  0.79818  1.0000
  H   H29       1.0  0.83867  0.10737  0.81864  1.0000
  H   H30       1.0  0.16134  0.89263  0.18136  1.0000
  C   C1        1.0  0.26097  0.66251  0.45895  1.0000
  C   C2        1.0  0.73903  0.33749  0.54105  1.0000
  C   C3        1.0  0.07732  0.73479  0.48099  1.0000
  C   C4        1.0  0.92268  0.26521  0.51902  1.0000
  C   C5        1.0  0.01750  0.82037  0.56704  1.0000
  C   C6        1.0  0.98250  0.17963  0.43296  1.0000
  C   C7        1.0  0.84732  0.90046  0.58090  1.0000
  C   C8        1.0  0.15268  0.09954  0.41910  1.0000
  C   C9        1.0  0.73926  0.89298  0.50809  1.0000
  C   C10       1.0  0.26074  0.10702  0.49191  1.0000
  C   C11       1.0  0.79690  0.79974  0.42827  1.0000
  C   C12       1.0  0.20309  0.20026  0.57173  1.0000
  C   C13       1.0  0.96678  0.72038  0.41408  1.0000
  C   C14       1.0  0.03322  0.27962  0.58592  1.0000
  C   C15       1.0  0.51124  0.25492  0.27565  1.0000
  C   C16       1.0  0.48876  0.74508  0.72435  1.0000
  C   C17       1.0  0.59447  0.34953  0.17383  1.0000
  C   C18       1.0  0.40553  0.65047  0.82617  1.0000
  C   C19       1.0  0.71195  0.52452  0.06710  1.0000
  C   C20       1.0  0.28805  0.47549  0.93290  1.0000
  C   C21       1.0  0.73025  0.43014  0.99134  1.0000
  C   C22       1.0  0.26974  0.56986  0.00866  1.0000
  C   C23       1.0  0.77553  0.64665  0.02431  1.0000
  C   C24       1.0  0.22446  0.35336  0.97568  1.0000
  C   C25       1.0  0.85746  0.66949  0.90520  1.0000
  C   C26       1.0  0.14254  0.33052  0.09479  1.0000
  C   C27       1.0  0.87517  0.57415  0.83062  1.0000
  C   C28       1.0  0.12482  0.42585  0.16938  1.0000
  C   C29       1.0  0.81114  0.45291  0.87194  1.0000
  C   C30       1.0  0.18886  0.54709  0.12805  1.0000
  C   C31       1.0  0.65715  0.19280  0.02275  1.0000
  C   C32       1.0  0.34286  0.80720  0.97725  1.0000
  C   C33       1.0  0.83367  0.09006  0.01158  1.0000
  C   C34       1.0  0.16634  0.90994  0.98842  1.0000
  C   C35       1.0  0.92589  0.02948  0.11285  1.0000
  C   C36       1.0  0.07412  0.97051  0.88716  1.0000
  C   C37       1.0  0.90867  0.06008  0.89857  1.0000
  C   C38       1.0  0.09134  0.93992  0.10143  1.0000
  C   C39       1.0  0.67212  0.78282  0.36268  1.0000
  C   C40       1.0  0.32788  0.21718  0.63732  1.0000
  N   N1        1.0  0.62573  0.47161  0.17960  1.0000
  N   N2        1.0  0.37427  0.52840  0.82040  1.0000
  N   N3        1.0  0.65368  0.32205  0.06127  1.0000
  N   N4        1.0  0.34632  0.67794  0.93873  1.0000
  O   O1        1.0  0.31798  0.62790  0.35604  1.0000
  O   O2        1.0  0.68202  0.37210  0.64396  1.0000
  O   O3        1.0  0.35564  0.64200  0.53927  1.0000
  O   O4        1.0  0.64437  0.35800  0.46073  1.0000
  O   O5        1.0  0.79209  0.98314  0.66435  1.0000
  O   O6        1.0  0.20791  0.01686  0.33565  1.0000
  O   O7        1.0  0.53892  0.88707  0.34031  1.0000
  O   O8        1.0  0.46107  0.11293  0.65969  1.0000
  O   O9        1.0  0.71524  0.65582  0.33555  1.0000
  O   O10       1.0  0.28475  0.34418  0.66445  1.0000
