data_image0
_chemical_formula_structural       Cu2H28C28N16O18
_chemical_formula_sum              "Cu2 H28 C28 N16 O18"
_cell_length_a       7.30776
_cell_length_b       10.1118
_cell_length_c       12.8055
_cell_angle_alpha    95.5098
_cell_angle_beta     90.0202
_cell_angle_gamma    111.151

_space_group_name_H-M_alt    "P 1"
_space_group_IT_number       1

loop_
  _space_group_symop_operation_xyz
  'x, y, z'

loop_
  _atom_site_type_symbol
  _atom_site_label
  _atom_site_symmetry_multiplicity
  _atom_site_fract_x
  _atom_site_fract_y
  _atom_site_fract_z
  _atom_site_occupancy
  Cu  Cu1       1.0  0.09148  0.00003  0.74996  1.0000
  Cu  Cu2       1.0  0.90852  0.99997  0.25004  1.0000
  H   H1        1.0  0.39015  0.75059  0.25138  1.0000
  H   H2        1.0  0.63987  0.24937  0.24873  1.0000
  H   H3        1.0  0.60985  0.24941  0.74862  1.0000
  H   H4        1.0  0.36012  0.75063  0.75127  1.0000
  H   H5        1.0  0.68089  0.96064  0.80238  1.0000
  H   H6        1.0  0.72023  0.03940  0.69764  1.0000
  H   H7        1.0  0.31911  0.03936  0.19762  1.0000
  H   H8        1.0  0.27978  0.96060  0.30237  1.0000
  H   H9        1.0  0.49187  0.24449  0.40190  1.0000
  H   H10       1.0  0.24719  0.75537  0.09818  1.0000
  H   H11       1.0  0.50813  0.75551  0.59810  1.0000
  H   H12       1.0  0.75281  0.24463  0.90182  1.0000
  H   H13       1.0  0.28164  0.26292  0.36908  1.0000
  H   H14       1.0  0.01856  0.73704  0.13089  1.0000
  H   H15       1.0  0.71836  0.73707  0.63092  1.0000
  H   H16       1.0  0.98144  0.26296  0.86911  1.0000
  H   H17       1.0  0.25046  0.03333  0.51178  1.0000
  H   H18       1.0  0.21706  0.96665  0.98822  1.0000
  H   H19       1.0  0.74953  0.96667  0.48822  1.0000
  H   H20       1.0  0.78294  0.03335  0.01178  1.0000
  H   H21       1.0  0.35104  0.47027  0.59237  1.0000
  H   H22       1.0  0.88094  0.52979  0.90754  1.0000
  H   H23       1.0  0.64896  0.52973  0.40763  1.0000
  H   H24       1.0  0.11906  0.47022  0.09247  1.0000
  H   H25       1.0  0.90352  0.55589  0.67911  1.0000
  H   H26       1.0  0.34797  0.44417  0.82078  1.0000
  H   H27       1.0  0.09648  0.44411  0.32089  1.0000
  H   H28       1.0  0.65202  0.55583  0.17922  1.0000
  C   C1        1.0  0.25157  0.13110  0.55532  1.0000
  C   C2        1.0  0.12041  0.86890  0.94467  1.0000
  C   C3        1.0  0.74843  0.86889  0.44468  1.0000
  C   C4        1.0  0.87959  0.13111  0.05533  1.0000
  C   C5        1.0  0.29953  0.35597  0.59761  1.0000
  C   C6        1.0  0.94369  0.64407  0.90230  1.0000
  C   C7        1.0  0.70047  0.64403  0.40239  1.0000
  C   C8        1.0  0.05631  0.35593  0.09770  1.0000
  C   C9        1.0  0.07390  0.64121  0.54870  1.0000
  C   C10       1.0  0.43312  0.35882  0.95122  1.0000
  C   C11       1.0  0.92610  0.35879  0.45130  1.0000
  C   C12       1.0  0.56688  0.64118  0.04878  1.0000
  C   C13       1.0  0.12842  0.60994  0.44665  1.0000
  C   C14       1.0  0.51865  0.39005  0.05336  1.0000
  C   C15       1.0  0.87158  0.39006  0.55335  1.0000
  C   C16       1.0  0.48136  0.60995  0.94664  1.0000
  C   C17       1.0  0.94498  0.53092  0.60012  1.0000
  C   C18       1.0  0.41431  0.46913  0.89980  1.0000
  C   C19       1.0  0.05502  0.46908  0.39987  1.0000
  C   C20       1.0  0.58569  0.53088  0.10021  1.0000
  C   C21       1.0  0.15101  0.78520  0.61207  1.0000
  C   C22       1.0  0.36670  0.21485  0.88781  1.0000
  C   C23       1.0  0.84899  0.21480  0.38793  1.0000
  C   C24       1.0  0.63330  0.78515  0.11219  1.0000
  C   C25       1.0  0.25014  0.72485  0.38402  1.0000
  C   C26       1.0  0.52548  0.27512  0.11605  1.0000
  C   C27       1.0  0.74987  0.27515  0.61598  1.0000
  C   C28       1.0  0.47452  0.72488  0.88395  1.0000
  N   N1        1.0  0.32397  0.26221  0.51985  1.0000
  N   N2        1.0  0.06172  0.73779  0.98014  1.0000
  N   N3        1.0  0.67603  0.73779  0.48015  1.0000
  N   N4        1.0  0.93828  0.26221  0.01987  1.0000
  N   N5        1.0  0.18833  0.14638  0.65098  1.0000
  N   N6        1.0  0.04202  0.85368  0.84896  1.0000
  N   N7        1.0  0.81167  0.85362  0.34901  1.0000
  N   N8        1.0  0.95798  0.14632  0.15104  1.0000
  N   N9        1.0  0.21611  0.28783  0.67790  1.0000
  N   N10       1.0  0.92847  0.71226  0.82199  1.0000
  N   N11       1.0  0.78388  0.71217  0.32210  1.0000
  N   N12       1.0  0.07154  0.28774  0.17801  1.0000
  N   N13       1.0  0.39960  0.29911  0.42187  1.0000
  N   N14       1.0  0.10035  0.70083  0.07814  1.0000
  N   N15       1.0  0.60039  0.70089  0.57813  1.0000
  N   N16       1.0  0.89965  0.29917  0.92186  1.0000
  O   O1        1.0  0.02761  0.84728  0.62690  1.0000
  O   O2        1.0  0.18124  0.15274  0.87295  1.0000
  O   O3        1.0  0.97239  0.15272  0.37310  1.0000
  O   O4        1.0  0.81876  0.84726  0.12706  1.0000
  O   O5        1.0  0.32244  0.83027  0.65376  1.0000
  O   O6        1.0  0.49315  0.16983  0.84618  1.0000
  O   O7        1.0  0.67756  0.16973  0.34624  1.0000
  O   O8        1.0  0.50684  0.83016  0.15381  1.0000
  O   O9        1.0  0.28698  0.85303  0.41055  1.0000
  O   O10       1.0  0.43414  0.14699  0.08952  1.0000
  O   O11       1.0  0.71302  0.14697  0.58945  1.0000
  O   O12       1.0  0.56586  0.85302  0.91048  1.0000
  O   O13       1.0  0.31045  0.67426  0.29635  1.0000
  O   O14       1.0  0.63634  0.32571  0.20375  1.0000
  O   O15       1.0  0.68955  0.32574  0.70365  1.0000
  O   O16       1.0  0.36366  0.67429  0.79625  1.0000
  O   O17       1.0  0.77887  0.99988  0.74996  1.0000
  O   O18       1.0  0.22113  0.00011  0.25004  1.0000
