data_image0
_chemical_formula_structural       CuH16C14N8O10
_chemical_formula_sum              "Cu1 H16 C14 N8 O10"
_cell_length_a       7.02581
_cell_length_b       7.49225
_cell_length_c       9.7828
_cell_angle_alpha    69.8778
_cell_angle_beta     88.4511
_cell_angle_gamma    75.8006

_space_group_name_H-M_alt    "P 1"
_space_group_IT_number       1

loop_
  _space_group_symop_operation_xyz
  'x, y, z'

loop_
  _atom_site_type_symbol
  _atom_site_label
  _atom_site_symmetry_multiplicity
  _atom_site_fract_x
  _atom_site_fract_y
  _atom_site_fract_z
  _atom_site_occupancy
  Cu  Cu1       1.0  0.00000  0.50000  0.00000  1.0000
  H   H1        1.0  0.94286  0.81874  0.18332  1.0000
  H   H2        1.0  0.05714  0.18125  0.81669  1.0000
  H   H3        1.0  0.91561  0.86246  0.96456  1.0000
  H   H4        1.0  0.08438  0.13754  0.03544  1.0000
  H   H5        1.0  0.14316  0.83517  0.99788  1.0000
  H   H6        1.0  0.85684  0.16482  0.00212  1.0000
  H   H7        1.0  0.31615  0.76400  0.24763  1.0000
  H   H8        1.0  0.68385  0.23601  0.75237  1.0000
  H   H9        1.0  0.26444  0.54926  0.26160  1.0000
  H   H10       1.0  0.73555  0.45074  0.73840  1.0000
  H   H11       1.0  0.14979  0.18899  0.46570  1.0000
  H   H12       1.0  0.85021  0.81100  0.53431  1.0000
  H   H13       1.0  0.67750  0.35770  0.48077  1.0000
  H   H14       1.0  0.32250  0.64230  0.51923  1.0000
  H   H15       1.0  0.54095  0.67860  0.03058  1.0000
  H   H16       1.0  0.45905  0.32140  0.96942  1.0000
  C   C1        1.0  0.40372  0.08631  0.36018  1.0000
  C   C2        1.0  0.59628  0.91369  0.63982  1.0000
  C   C3        1.0  0.60210  0.97941  0.37852  1.0000
  C   C4        1.0  0.39791  0.02059  0.62149  1.0000
  C   C5        1.0  0.30401  0.10758  0.48135  1.0000
  C   C6        1.0  0.69600  0.89242  0.51866  1.0000
  C   C7        1.0  0.28578  0.16751  0.21607  1.0000
  C   C8        1.0  0.71422  0.83249  0.78393  1.0000
  C   C9        1.0  0.71727  0.97093  0.24932  1.0000
  C   C10       1.0  0.28274  0.02906  0.75069  1.0000
  C   C11       1.0  0.69356  0.40914  0.36366  1.0000
  C   C12       1.0  0.30644  0.59086  0.63634  1.0000
  C   C13       1.0  0.62175  0.57857  0.13200  1.0000
  C   C14       1.0  0.37825  0.42143  0.86800  1.0000
  N   N1        1.0  0.80758  0.47613  0.15021  1.0000
  N   N2        1.0  0.19242  0.52387  0.84979  1.0000
  N   N3        1.0  0.85402  0.36783  0.29589  1.0000
  N   N4        1.0  0.14598  0.63217  0.70411  1.0000
  N   N5        1.0  0.54592  0.54016  0.26537  1.0000
  N   N6        1.0  0.45408  0.45984  0.73462  1.0000
  N   N7        1.0  0.35477  0.61339  0.29978  1.0000
  N   N8        1.0  0.64523  0.38662  0.70022  1.0000
  O   O1        1.0  0.22574  0.35440  0.16047  1.0000
  O   O2        1.0  0.77427  0.64560  0.83954  1.0000
  O   O3        1.0  0.24732  0.04558  0.16482  1.0000
  O   O4        1.0  0.75268  0.95442  0.83518  1.0000
  O   O5        1.0  0.66890  0.09768  0.12613  1.0000
  O   O6        1.0  0.33110  0.90231  0.87387  1.0000
  O   O7        1.0  0.87436  0.82115  0.27857  1.0000
  O   O8        1.0  0.12564  0.17885  0.72143  1.0000
  O   O9        1.0  0.02695  0.79191  0.04378  1.0000
  O   O10       1.0  0.97305  0.20809  0.95622  1.0000
