data_image0
_chemical_formula_structural       Zn2H38C44N4O8
_chemical_formula_sum              "Zn2 H38 C44 N4 O8"
_cell_length_a       9.55296
_cell_length_b       10.5252
_cell_length_c       11.0254
_cell_angle_alpha    99.0365
_cell_angle_beta     102.46
_cell_angle_gamma    114.248

_space_group_name_H-M_alt    "P 1"
_space_group_IT_number       1

loop_
  _space_group_symop_operation_xyz
  'x, y, z'

loop_
  _atom_site_type_symbol
  _atom_site_label
  _atom_site_symmetry_multiplicity
  _atom_site_fract_x
  _atom_site_fract_y
  _atom_site_fract_z
  _atom_site_occupancy
  Zn  Zn1       1.0  0.03318  0.04916  0.38153  1.0000
  Zn  Zn2       1.0  0.96682  0.95084  0.61848  1.0000
  H   H1        1.0  0.87988  0.56074  0.22236  1.0000
  H   H2        1.0  0.12012  0.43926  0.77764  1.0000
  H   H3        1.0  0.87277  0.51717  0.37089  1.0000
  H   H4        1.0  0.12723  0.48283  0.62911  1.0000
  H   H5        1.0  0.05260  0.41042  0.39836  1.0000
  H   H6        1.0  0.94740  0.58958  0.60164  1.0000
  H   H7        1.0  0.32699  0.43647  0.43845  1.0000
  H   H8        1.0  0.67301  0.56353  0.56155  1.0000
  H   H9        1.0  0.21298  0.82712  0.32133  1.0000
  H   H10       1.0  0.78702  0.17287  0.67867  1.0000
  H   H11       1.0  0.54928  0.65807  0.42151  1.0000
  H   H12       1.0  0.45072  0.34193  0.57849  1.0000
  H   H13       1.0  0.49619  0.88283  0.24504  1.0000
  H   H14       1.0  0.50381  0.11717  0.75496  1.0000
  H   H15       1.0  0.50374  0.98628  0.39008  1.0000
  H   H16       1.0  0.49626  0.01372  0.60992  1.0000
  H   H17       1.0  0.31817  0.07779  0.30164  1.0000
  H   H18       1.0  0.68183  0.92221  0.69836  1.0000
  H   H19       1.0  0.42855  0.18727  0.21403  1.0000
  H   H20       1.0  0.57145  0.81273  0.78597  1.0000
  H   H21       1.0  0.29061  0.00119  0.13634  1.0000
  H   H22       1.0  0.70939  0.99881  0.86366  1.0000
  H   H23       1.0  0.16371  0.16894  0.87490  1.0000
  H   H24       1.0  0.83629  0.83106  0.12510  1.0000
  H   H25       1.0  0.30485  0.13481  0.97746  1.0000
  H   H26       1.0  0.69515  0.86519  0.02254  1.0000
  H   H27       1.0  0.39379  0.45413  0.18432  1.0000
  H   H28       1.0  0.60621  0.54587  0.81568  1.0000
  H   H29       1.0  0.00724  0.31440  0.89417  1.0000
  H   H30       1.0  0.99276  0.68560  0.10583  1.0000
  H   H31       1.0  0.77153  0.34412  0.92870  1.0000
  H   H32       1.0  0.22847  0.65588  0.07130  1.0000
  H   H33       1.0  0.66316  0.26622  0.10388  1.0000
  H   H34       1.0  0.33684  0.73378  0.89612  1.0000
  H   H35       1.0  0.78873  0.15784  0.25218  1.0000
  H   H36       1.0  0.21127  0.84217  0.74782  1.0000
  H   H37       1.0  0.39116  0.30387  0.79691  1.0000
  H   H38       1.0  0.60884  0.69613  0.20309  1.0000
  C   C1        1.0  0.94145  0.59865  0.32725  1.0000
  C   C2        1.0  0.05855  0.40135  0.67275  1.0000
  C   C3        1.0  0.94460  0.74216  0.38106  1.0000
  C   C4        1.0  0.05540  0.25785  0.61895  1.0000
  C   C5        1.0  0.11219  0.61645  0.35461  1.0000
  C   C6        1.0  0.88781  0.38355  0.64539  1.0000
  C   C7        1.0  0.14677  0.50761  0.38895  1.0000
  C   C8        1.0  0.85323  0.49239  0.61105  1.0000
  C   C9        1.0  0.30313  0.52290  0.41204  1.0000
  C   C10       1.0  0.69687  0.47709  0.58796  1.0000
  C   C11       1.0  0.23786  0.74065  0.34605  1.0000
  C   C12       1.0  0.76214  0.25936  0.65395  1.0000
  C   C13       1.0  0.39514  0.75749  0.36896  1.0000
  C   C14       1.0  0.60486  0.24251  0.63104  1.0000
  C   C15       1.0  0.42737  0.64687  0.40208  1.0000
  C   C16       1.0  0.57263  0.35313  0.59792  1.0000
  C   C17       1.0  0.51885  0.89192  0.34900  1.0000
  C   C18       1.0  0.48115  0.10808  0.65100  1.0000
  C   C19       1.0  0.69563  0.93239  0.40789  1.0000
  C   C20       1.0  0.30437  0.06761  0.59211  1.0000
  C   C21       1.0  0.31153  0.09863  0.20692  1.0000
  C   C22       1.0  0.68847  0.90137  0.79308  1.0000
  C   C23       1.0  0.18010  0.13860  0.16767  1.0000
  C   C24       1.0  0.81990  0.86140  0.83233  1.0000
  C   C25       1.0  0.97034  0.17898  0.15744  1.0000
  C   C26       1.0  0.02966  0.82102  0.84256  1.0000
  C   C27       1.0  0.02971  0.22280  0.05630  1.0000
  C   C28       1.0  0.97029  0.77720  0.94370  1.0000
  C   C29       1.0  0.25093  0.20885  0.97211  1.0000
  C   C30       1.0  0.74907  0.79115  0.02789  1.0000
  C   C31       1.0  0.37867  0.36103  0.98926  1.0000
  C   C32       1.0  0.62133  0.63897  0.01074  1.0000
  C   C33       1.0  0.44017  0.47277  0.10313  1.0000
  C   C34       1.0  0.55983  0.52723  0.89687  1.0000
  C   C35       1.0  0.96097  0.28266  0.97228  1.0000
  C   C36       1.0  0.03903  0.71734  0.02772  1.0000
  C   C37       1.0  0.82832  0.29724  0.99194  1.0000
  C   C38       1.0  0.17167  0.70276  0.00806  1.0000
  C   C39       1.0  0.76685  0.25246  0.09149  1.0000
  C   C40       1.0  0.23315  0.74754  0.90851  1.0000
  C   C41       1.0  0.83605  0.19296  0.17542  1.0000
  C   C42       1.0  0.16395  0.80704  0.82458  1.0000
  C   C43       1.0  0.43955  0.39003  0.88642  1.0000
  C   C44       1.0  0.56045  0.60997  0.11358  1.0000
  N   N1        1.0  0.06716  0.12724  0.22536  1.0000
  N   N2        1.0  0.93284  0.87276  0.77464  1.0000
  N   N3        1.0  0.16073  0.19418  0.06457  1.0000
  N   N4        1.0  0.83927  0.80582  0.93543  1.0000
  O   O1        1.0  0.97216  0.83164  0.31285  1.0000
  O   O2        1.0  0.02784  0.16836  0.68716  1.0000
  O   O3        1.0  0.92645  0.76452  0.49191  1.0000
  O   O4        1.0  0.07355  0.23548  0.50809  1.0000
  O   O5        1.0  0.74034  0.92181  0.52154  1.0000
  O   O6        1.0  0.25966  0.07819  0.47846  1.0000
  O   O7        1.0  0.78625  0.97718  0.33877  1.0000
  O   O8        1.0  0.21374  0.02282  0.66123  1.0000
