data_image0
_chemical_formula_structural       Ni4H20C20N20O12
_chemical_formula_sum              "Ni4 H20 C20 N20 O12"
_cell_length_a       8.01903
_cell_length_b       8.01904
_cell_length_c       13.9987
_cell_angle_alpha    97.4032
_cell_angle_beta     97.4032
_cell_angle_gamma    116.716

_space_group_name_H-M_alt    "P 1"
_space_group_IT_number       1

loop_
  _space_group_symop_operation_xyz
  'x, y, z'

loop_
  _atom_site_type_symbol
  _atom_site_label
  _atom_site_symmetry_multiplicity
  _atom_site_fract_x
  _atom_site_fract_y
  _atom_site_fract_z
  _atom_site_occupancy
  Ni  Ni1       1.0  0.91047  0.69696  0.73555  1.0000
  Ni  Ni2       1.0  0.30304  0.08953  0.76445  1.0000
  Ni  Ni3       1.0  0.08952  0.30304  0.26445  1.0000
  Ni  Ni4       1.0  0.69696  0.91047  0.23555  1.0000
  H   H1        1.0  0.71178  0.52481  0.55254  1.0000
  H   H2        1.0  0.47519  0.28822  0.94746  1.0000
  H   H3        1.0  0.28822  0.47519  0.44746  1.0000
  H   H4        1.0  0.52481  0.71178  0.05254  1.0000
  H   H5        1.0  0.62500  0.38527  0.62453  1.0000
  H   H6        1.0  0.61473  0.37501  0.87548  1.0000
  H   H7        1.0  0.37501  0.61473  0.37548  1.0000
  H   H8        1.0  0.38527  0.62500  0.12452  1.0000
  H   H9        1.0  0.13644  0.55430  0.62575  1.0000
  H   H10       1.0  0.44571  0.86356  0.87425  1.0000
  H   H11       1.0  0.86356  0.44570  0.37425  1.0000
  H   H12       1.0  0.55429  0.13643  0.12575  1.0000
  H   H13       1.0  0.07066  0.22357  0.89807  1.0000
  H   H14       1.0  0.77643  0.92934  0.60193  1.0000
  H   H15       1.0  0.92934  0.77643  0.10193  1.0000
  H   H16       1.0  0.22357  0.07066  0.39807  1.0000
  H   H17       1.0  0.94829  0.46136  0.88745  1.0000
  H   H18       1.0  0.53864  0.05171  0.61255  1.0000
  H   H19       1.0  0.05170  0.53864  0.11255  1.0000
  H   H20       1.0  0.46136  0.94830  0.38745  1.0000
  C   C1        1.0  0.31763  0.33138  0.62731  1.0000
  C   C2        1.0  0.66862  0.68237  0.87269  1.0000
  C   C3        1.0  0.68237  0.66861  0.37268  1.0000
  C   C4        1.0  0.33138  0.31762  0.12731  1.0000
  C   C5        1.0  0.19986  0.35981  0.69640  1.0000
  C   C6        1.0  0.64019  0.80014  0.80360  1.0000
  C   C7        1.0  0.80014  0.64018  0.30360  1.0000
  C   C8        1.0  0.35982  0.19986  0.19640  1.0000
  C   C9        1.0  0.12439  0.48457  0.68809  1.0000
  C   C10       1.0  0.51543  0.87560  0.81191  1.0000
  C   C11       1.0  0.87560  0.51543  0.31191  1.0000
  C   C12       1.0  0.48457  0.12440  0.18809  1.0000
  C   C13       1.0  0.08938  0.30086  0.83849  1.0000
  C   C14       1.0  0.69914  0.91062  0.66151  1.0000
  C   C15       1.0  0.91061  0.69914  0.16151  1.0000
  C   C16       1.0  0.30086  0.08938  0.33848  1.0000
  C   C17       1.0  0.02021  0.43149  0.83212  1.0000
  C   C18       1.0  0.56852  0.97979  0.66788  1.0000
  C   C19       1.0  0.97979  0.56852  0.16789  1.0000
  C   C20       1.0  0.43148  0.02021  0.33211  1.0000
  N   N1        1.0  0.18025  0.26635  0.77091  1.0000
  N   N2        1.0  0.73365  0.81975  0.72909  1.0000
  N   N3        1.0  0.81975  0.73366  0.22909  1.0000
  N   N4        1.0  0.26634  0.18025  0.27091  1.0000
  N   N5        1.0  0.03668  0.52283  0.75663  1.0000
  N   N6        1.0  0.47718  0.96332  0.74337  1.0000
  N   N7        1.0  0.96332  0.47717  0.24337  1.0000
  N   N8        1.0  0.52283  0.03668  0.25663  1.0000
  N   N9        1.0  0.08025  0.87442  0.65279  1.0000
  N   N10       1.0  0.12558  0.91975  0.84721  1.0000
  N   N11       1.0  0.91976  0.12558  0.34721  1.0000
  N   N12       1.0  0.87441  0.08024  0.15279  1.0000
  N   N13       1.0  0.11057  0.84580  0.57143  1.0000
  N   N14       1.0  0.15420  0.88943  0.92858  1.0000
  N   N15       1.0  0.88943  0.15421  0.42858  1.0000
  N   N16       1.0  0.84579  0.11057  0.07142  1.0000
  N   N17       1.0  0.14416  0.82519  0.49350  1.0000
  N   N18       1.0  0.17481  0.85584  0.00651  1.0000
  N   N19       1.0  0.85584  0.17481  0.50650  1.0000
  N   N20       1.0  0.82519  0.14416  0.99349  1.0000
  O   O1        1.0  0.41169  0.24581  0.65738  1.0000
  O   O2        1.0  0.75420  0.58831  0.84263  1.0000
  O   O3        1.0  0.58832  0.75419  0.34263  1.0000
  O   O4        1.0  0.24581  0.41168  0.15737  1.0000
  O   O5        1.0  0.32777  0.39703  0.55119  1.0000
  O   O6        1.0  0.60298  0.67224  0.94881  1.0000
  O   O7        1.0  0.67224  0.60297  0.44882  1.0000
  O   O8        1.0  0.39703  0.32777  0.05118  1.0000
  O   O9        1.0  0.74637  0.48357  0.61232  1.0000
  O   O10       1.0  0.51642  0.25363  0.88768  1.0000
  O   O11       1.0  0.25363  0.51642  0.38768  1.0000
  O   O12       1.0  0.48358  0.74637  0.11232  1.0000
