data_image0
_chemical_formula_structural       Bi2H20C20N22
_chemical_formula_sum              "Bi2 H20 C20 N22"
_cell_length_a       6.31294
_cell_length_b       10.7777
_cell_length_c       12.168
_cell_angle_alpha    116.379
_cell_angle_beta     90.001
_cell_angle_gamma    89.9985

_space_group_name_H-M_alt    "P 1"
_space_group_IT_number       1

loop_
  _space_group_symop_operation_xyz
  'x, y, z'

loop_
  _atom_site_type_symbol
  _atom_site_label
  _atom_site_symmetry_multiplicity
  _atom_site_fract_x
  _atom_site_fract_y
  _atom_site_fract_z
  _atom_site_occupancy
  Bi  Bi1       1.0  0.11799  0.63090  0.99996  1.0000
  Bi  Bi2       1.0  0.61799  0.36910  0.00003  1.0000
  H   H1        1.0  0.91645  0.86045  0.29074  1.0000
  H   H2        1.0  0.41643  0.13955  0.70926  1.0000
  H   H3        1.0  0.41685  0.43029  0.29125  1.0000
  H   H4        1.0  0.91686  0.56972  0.70875  1.0000
  H   H5        1.0  0.02539  0.06638  0.48548  1.0000
  H   H6        1.0  0.52537  0.93361  0.51452  1.0000
  H   H7        1.0  0.52745  0.41978  0.48569  1.0000
  H   H8        1.0  0.02743  0.58022  0.51431  1.0000
  H   H9        1.0  0.37321  0.17994  0.49203  1.0000
  H   H10       1.0  0.87320  0.82005  0.50797  1.0000
  H   H11       1.0  0.87541  0.31223  0.49129  1.0000
  H   H12       1.0  0.37539  0.68777  0.50871  1.0000
  H   H13       1.0  0.60609  0.07950  0.30324  1.0000
  H   H14       1.0  0.10610  0.92050  0.69676  1.0000
  H   H15       1.0  0.10656  0.22297  0.30199  1.0000
  H   H16       1.0  0.60654  0.77703  0.69800  1.0000
  H   H17       1.0  0.48057  0.87120  0.12000  1.0000
  H   H18       1.0  0.98057  0.12880  0.88000  1.0000
  H   H19       1.0  0.97993  0.24802  0.11915  1.0000
  H   H20       1.0  0.47993  0.75198  0.88084  1.0000
  C   C1        1.0  0.06843  0.91210  0.29820  1.0000
  C   C2        1.0  0.56841  0.08790  0.70180  1.0000
  C   C3        1.0  0.56903  0.38605  0.29835  1.0000
  C   C4        1.0  0.06902  0.61395  0.70165  1.0000
  C   C5        1.0  0.12885  0.02613  0.40565  1.0000
  C   C6        1.0  0.62884  0.97386  0.59436  1.0000
  C   C7        1.0  0.63021  0.37973  0.40564  1.0000
  C   C8        1.0  0.13020  0.62027  0.59436  1.0000
  C   C9        1.0  0.32389  0.08923  0.40922  1.0000
  C   C10       1.0  0.82389  0.91077  0.59078  1.0000
  C   C11       1.0  0.82529  0.32000  0.40867  1.0000
  C   C12       1.0  0.32527  0.68000  0.59133  1.0000
  C   C13       1.0  0.45294  0.03428  0.30543  1.0000
  C   C14       1.0  0.95294  0.96572  0.69457  1.0000
  C   C15       1.0  0.95348  0.27056  0.30451  1.0000
  C   C16       1.0  0.45347  0.72943  0.69548  1.0000
  C   C17       1.0  0.38229  0.91885  0.20205  1.0000
  C   C18       1.0  0.88228  0.08115  0.79795  1.0000
  C   C19       1.0  0.88224  0.28262  0.20143  1.0000
  C   C20       1.0  0.38223  0.71739  0.79857  1.0000
  N   N1        1.0  0.81119  0.75066  0.00032  1.0000
  N   N2        1.0  0.31117  0.24936  0.99969  1.0000
  N   N3        1.0  0.83726  0.86238  0.99979  1.0000
  N   N4        1.0  0.33725  0.13762  0.00021  1.0000
  N   N5        1.0  0.84966  0.96972  0.99931  1.0000
  N   N6        1.0  0.34965  0.03030  0.00069  1.0000
  N   N7        1.0  0.92205  0.56621  0.13171  1.0000
  N   N8        1.0  0.42205  0.43380  0.86829  1.0000
  N   N9        1.0  0.42168  0.56598  0.13263  1.0000
  N   N10       1.0  0.92168  0.43403  0.86738  1.0000
  N   N11       1.0  0.99217  0.58500  0.23047  1.0000
  N   N12       1.0  0.49216  0.41500  0.76952  1.0000
  N   N13       1.0  0.49336  0.64556  0.23117  1.0000
  N   N14       1.0  0.99336  0.35444  0.76883  1.0000
  N   N15       1.0  0.05244  0.60105  0.32605  1.0000
  N   N16       1.0  0.55243  0.39894  0.67394  1.0000
  N   N17       1.0  0.55637  0.72434  0.32650  1.0000
  N   N18       1.0  0.05638  0.27566  0.67351  1.0000
  N   N19       1.0  0.19367  0.85939  0.19825  1.0000
  N   N20       1.0  0.69366  0.14061  0.80176  1.0000
  N   N21       1.0  0.69357  0.33849  0.19812  1.0000
  N   N22       1.0  0.19357  0.66151  0.80188  1.0000
