data_image0
_chemical_formula_structural       Ag8H24C20N8O24
_chemical_formula_sum              "Ag8 H24 C20 N8 O24"
_cell_length_a       8.20274
_cell_length_b       10.1732
_cell_length_c       12.8512
_cell_angle_alpha    108.971
_cell_angle_beta     90.001
_cell_angle_gamma    113.767

_space_group_name_H-M_alt    "P 1"
_space_group_IT_number       1

loop_
  _space_group_symop_operation_xyz
  'x, y, z'

loop_
  _atom_site_type_symbol
  _atom_site_label
  _atom_site_symmetry_multiplicity
  _atom_site_fract_x
  _atom_site_fract_y
  _atom_site_fract_z
  _atom_site_occupancy
  Ag  Ag1       1.0  0.93678  0.11534  0.19617  1.0000
  Ag  Ag2       1.0  0.82143  0.88486  0.30381  1.0000
  Ag  Ag3       1.0  0.06322  0.88467  0.80383  1.0000
  Ag  Ag4       1.0  0.17856  0.11514  0.69619  1.0000
  Ag  Ag5       1.0  0.40356  0.40889  0.66967  1.0000
  Ag  Ag6       1.0  0.99487  0.59107  0.83039  1.0000
  Ag  Ag7       1.0  0.59644  0.59111  0.33033  1.0000
  Ag  Ag8       1.0  0.00513  0.40893  0.16961  1.0000
  H   H1        1.0  0.62434  0.23858  0.29139  1.0000
  H   H2        1.0  0.38581  0.76170  0.20883  1.0000
  H   H3        1.0  0.37567  0.76142  0.70861  1.0000
  H   H4        1.0  0.61418  0.23830  0.79117  1.0000
  H   H5        1.0  0.70944  0.97234  0.00124  1.0000
  H   H6        1.0  0.73712  0.02750  0.49881  1.0000
  H   H7        1.0  0.29056  0.02767  0.99876  1.0000
  H   H8        1.0  0.26286  0.97249  0.50118  1.0000
  H   H9        1.0  0.61793  0.05829  0.10177  1.0000
  H   H10       1.0  0.55974  0.94197  0.39830  1.0000
  H   H11       1.0  0.38208  0.94172  0.89823  1.0000
  H   H12       1.0  0.44025  0.05803  0.60169  1.0000
  H   H13       1.0  0.43200  0.55685  0.88798  1.0000
  H   H14       1.0  0.87531  0.44311  0.61210  1.0000
  H   H15       1.0  0.56800  0.44316  0.11202  1.0000
  H   H16       1.0  0.12470  0.55689  0.38790  1.0000
  H   H17       1.0  0.53577  0.44601  0.86716  1.0000
  H   H18       1.0  0.08982  0.55406  0.63277  1.0000
  H   H19       1.0  0.46423  0.55399  0.13284  1.0000
  H   H20       1.0  0.91018  0.44594  0.36723  1.0000
  H   H21       1.0  0.03389  0.27174  0.47726  1.0000
  H   H22       1.0  0.76223  0.72835  0.02276  1.0000
  H   H23       1.0  0.96612  0.72827  0.52274  1.0000
  H   H24       1.0  0.23777  0.27165  0.97723  1.0000
  C   C1        1.0  0.36058  0.15675  0.20166  1.0000
  C   C2        1.0  0.20400  0.84372  0.29840  1.0000
  C   C3        1.0  0.63942  0.84326  0.79834  1.0000
  C   C4        1.0  0.79599  0.15627  0.70160  1.0000
  C   C5        1.0  0.31790  0.21979  0.31374  1.0000
  C   C6        1.0  0.09822  0.78050  0.18634  1.0000
  C   C7        1.0  0.68211  0.78022  0.68627  1.0000
  C   C8        1.0  0.90177  0.21950  0.81366  1.0000
  C   C9        1.0  0.42055  0.28338  0.41999  1.0000
  C   C10       1.0  0.13720  0.71666  0.08012  1.0000
  C   C11       1.0  0.57945  0.71662  0.58002  1.0000
  C   C12       1.0  0.86280  0.28334  0.91988  1.0000
  C   C13       1.0  0.61068  0.32646  0.45537  1.0000
  C   C14       1.0  0.28414  0.67341  0.04481  1.0000
  C   C15       1.0  0.38933  0.67353  0.54464  1.0000
  C   C16       1.0  0.71586  0.32659  0.95519  1.0000
  C   C17       1.0  0.15006  0.26588  0.43916  1.0000
  C   C18       1.0  0.88427  0.73426  0.06088  1.0000
  C   C19       1.0  0.84995  0.73412  0.56085  1.0000
  C   C20       1.0  0.11572  0.26575  0.93911  1.0000
  N   N1        1.0  0.14897  0.21139  0.32838  1.0000
  N   N2        1.0  0.93776  0.78898  0.17166  1.0000
  N   N3        1.0  0.85104  0.78862  0.67162  1.0000
  N   N4        1.0  0.06223  0.21102  0.82834  1.0000
  N   N5        1.0  0.31105  0.31094  0.49742  1.0000
  N   N6        1.0  0.00015  0.68903  0.00267  1.0000
  N   N7        1.0  0.68895  0.68906  0.50259  1.0000
  N   N8        1.0  0.99985  0.31098  0.99733  1.0000
  O   O1        1.0  0.23950  0.09312  0.11854  1.0000
  O   O2        1.0  0.14654  0.90738  0.38150  1.0000
  O   O3        1.0  0.76051  0.90689  0.88146  1.0000
  O   O4        1.0  0.85344  0.09259  0.61850  1.0000
  O   O5        1.0  0.52315  0.16732  0.19536  1.0000
  O   O6        1.0  0.35606  0.83324  0.30472  1.0000
  O   O7        1.0  0.47686  0.83269  0.80464  1.0000
  O   O8        1.0  0.64393  0.16676  0.69528  1.0000
  O   O9        1.0  0.67494  0.38695  0.55626  1.0000
  O   O10       1.0  0.28783  0.61271  0.94392  1.0000
  O   O11       1.0  0.32506  0.61304  0.44374  1.0000
  O   O12       1.0  0.71217  0.38729  0.05608  1.0000
  O   O13       1.0  0.71021  0.30272  0.37713  1.0000
  O   O14       1.0  0.40743  0.69725  0.12308  1.0000
  O   O15       1.0  0.28980  0.69728  0.62287  1.0000
  O   O16       1.0  0.59256  0.30275  0.87692  1.0000
  O   O17       1.0  0.69307  0.00081  0.08247  1.0000
  O   O18       1.0  0.69234  0.99931  0.41762  1.0000
  O   O19       1.0  0.30694  0.99919  0.91753  1.0000
  O   O20       1.0  0.30764  0.00068  0.58237  1.0000
  O   O21       1.0  0.51699  0.52192  0.84205  1.0000
  O   O22       1.0  0.99532  0.47818  0.65797  1.0000
  O   O23       1.0  0.48301  0.47808  0.15795  1.0000
  O   O24       1.0  0.00469  0.52181  0.34203  1.0000
