data_image0
_chemical_formula_structural       Co2H24C8N4Cl4O8
_chemical_formula_sum              "Co2 H24 C8 N4 Cl4 O8"
_cell_length_a       7.73976
_cell_length_b       8.04741
_cell_length_c       8.21951
_cell_angle_alpha    89.9999
_cell_angle_beta     106.206
_cell_angle_gamma    90.0002

_space_group_name_H-M_alt    "P 1"
_space_group_IT_number       1

loop_
  _space_group_symop_operation_xyz
  'x, y, z'

loop_
  _atom_site_type_symbol
  _atom_site_label
  _atom_site_symmetry_multiplicity
  _atom_site_fract_x
  _atom_site_fract_y
  _atom_site_fract_z
  _atom_site_occupancy
  Co  Co1       1.0  0.00000  1.00000  0.00000  1.0000
  Co  Co2       1.0  1.00000  0.50000  0.50000  1.0000
  H   H1        1.0  0.11267  0.06006  0.33264  1.0000
  H   H2        1.0  0.88733  0.56005  0.16736  1.0000
  H   H3        1.0  0.88733  0.93994  0.66736  1.0000
  H   H4        1.0  0.11267  0.43994  0.83264  1.0000
  H   H5        1.0  0.02271  0.88391  0.31133  1.0000
  H   H6        1.0  0.97729  0.38391  0.18868  1.0000
  H   H7        1.0  0.97730  0.11609  0.68868  1.0000
  H   H8        1.0  0.02271  0.61609  0.81133  1.0000
  H   H9        1.0  0.63111  0.88555  0.13621  1.0000
  H   H10       1.0  0.36889  0.38555  0.36378  1.0000
  H   H11       1.0  0.36889  0.11445  0.86379  1.0000
  H   H12       1.0  0.63111  0.61445  0.63622  1.0000
  H   H13       1.0  0.50650  0.67533  0.22670  1.0000
  H   H14       1.0  0.49350  0.17533  0.27329  1.0000
  H   H15       1.0  0.49350  0.32467  0.77329  1.0000
  H   H16       1.0  0.50650  0.82467  0.72671  1.0000
  H   H17       1.0  0.34310  0.58260  0.04861  1.0000
  H   H18       1.0  0.65690  0.08261  0.45139  1.0000
  H   H19       1.0  0.65691  0.41740  0.95139  1.0000
  H   H20       1.0  0.34309  0.91739  0.54861  1.0000
  H   H21       1.0  0.26760  0.68753  0.20730  1.0000
  H   H22       1.0  0.73240  0.18753  0.29269  1.0000
  H   H23       1.0  0.73240  0.31247  0.79269  1.0000
  H   H24       1.0  0.26760  0.81247  0.70731  1.0000
  C   C1        1.0  0.50498  0.92886  0.05111  1.0000
  C   C2        1.0  0.49502  0.42885  0.44889  1.0000
  C   C3        1.0  0.49502  0.07115  0.94889  1.0000
  C   C4        1.0  0.50498  0.57114  0.55112  1.0000
  C   C5        1.0  0.37110  0.68580  0.13952  1.0000
  C   C6        1.0  0.62891  0.18580  0.36047  1.0000
  C   C7        1.0  0.62891  0.31420  0.86047  1.0000
  C   C8        1.0  0.37109  0.81420  0.63953  1.0000
  N   N1        1.0  0.35971  0.84043  0.04460  1.0000
  N   N2        1.0  0.64029  0.34044  0.45540  1.0000
  N   N3        1.0  0.64029  0.15957  0.95540  1.0000
  N   N4        1.0  0.35971  0.65957  0.54460  1.0000
  Cl  Cl1       1.0  0.16513  0.26569  0.05251  1.0000
  Cl  Cl2       1.0  0.83487  0.76569  0.44750  1.0000
  Cl  Cl3       1.0  0.83487  0.73430  0.94750  1.0000
  Cl  Cl4       1.0  0.16513  0.23430  0.55250  1.0000
  O   O1        1.0  0.09928  0.95729  0.26388  1.0000
  O   O2        1.0  0.90072  0.45728  0.23612  1.0000
  O   O3        1.0  0.90072  0.04271  0.73612  1.0000
  O   O4        1.0  0.09928  0.54271  0.76388  1.0000
  O   O5        1.0  0.20164  0.87793  0.94248  1.0000
  O   O6        1.0  0.79836  0.37793  0.55752  1.0000
  O   O7        1.0  0.79836  0.12207  0.05751  1.0000
  O   O8        1.0  0.20164  0.62207  0.44248  1.0000
