data_image0
_chemical_formula_structural       Cu2H4C4N16O2
_chemical_formula_sum              "Cu2 H4 C4 N16 O2"
_cell_length_a       6.80427
_cell_length_b       6.80395
_cell_length_c       7.74824
_cell_angle_alpha    105.765
_cell_angle_beta     106.556
_cell_angle_gamma    111.472

_space_group_name_H-M_alt    "P 1"
_space_group_IT_number       1

loop_
  _space_group_symop_operation_xyz
  'x, y, z'

loop_
  _atom_site_type_symbol
  _atom_site_label
  _atom_site_symmetry_multiplicity
  _atom_site_fract_x
  _atom_site_fract_y
  _atom_site_fract_z
  _atom_site_occupancy
  Cu  Cu1       1.0  0.50000  1.00000  1.00000  1.0000
  Cu  Cu2       1.0  0.50000  0.50000  0.50000  1.0000
  H   H1        1.0  0.34913  0.47283  0.80150  1.0000
  H   H2        1.0  0.17163  0.54761  0.69862  1.0000
  H   H3        1.0  0.65087  0.52717  0.19851  1.0000
  H   H4        1.0  0.82837  0.45239  0.30138  1.0000
  C   C1        1.0  0.75042  0.12896  0.73590  1.0000
  C   C2        1.0  0.89306  0.01440  0.76410  1.0000
  C   C3        1.0  0.24957  0.87105  0.26409  1.0000
  C   C4        1.0  0.10695  0.98559  0.23590  1.0000
  N   N1        1.0  0.51505  0.26570  0.75977  1.0000
  N   N2        1.0  0.00601  0.75524  0.74022  1.0000
  N   N3        1.0  0.48495  0.73430  0.24023  1.0000
  N   N4        1.0  0.99399  0.24475  0.25978  1.0000
  N   N5        1.0  0.60171  0.32292  0.63861  1.0000
  N   N6        1.0  0.18435  0.96308  0.86140  1.0000
  N   N7        1.0  0.39829  0.67708  0.36139  1.0000
  N   N8        1.0  0.81565  0.03692  0.13860  1.0000
  N   N9        1.0  0.60627  0.14184  0.82345  1.0000
  N   N10       1.0  0.81844  0.78274  0.67652  1.0000
  N   N11       1.0  0.39373  0.85816  0.17655  1.0000
  N   N12       1.0  0.18156  0.21727  0.32348  1.0000
  N   N13       1.0  0.75057  0.24256  0.61957  1.0000
  N   N14       1.0  0.12298  0.13095  0.88044  1.0000
  N   N15       1.0  0.24943  0.75744  0.38043  1.0000
  N   N16       1.0  0.87701  0.86905  0.11955  1.0000
  O   O1        1.0  0.33737  0.58718  0.75008  1.0000
  O   O2        1.0  0.66263  0.41282  0.24992  1.0000
