data_image0
_chemical_formula_structural       Cd4H16C8N32O8
_chemical_formula_sum              "Cd4 H16 C8 N32 O8"
_cell_length_a       6.64694
_cell_length_b       8.97405
_cell_length_c       13.1343
_cell_angle_alpha    75.0189
_cell_angle_beta     80.5392
_cell_angle_gamma    68.2951

_space_group_name_H-M_alt    "P 1"
_space_group_IT_number       1

loop_
  _space_group_symop_operation_xyz
  'x, y, z'

loop_
  _atom_site_type_symbol
  _atom_site_label
  _atom_site_symmetry_multiplicity
  _atom_site_fract_x
  _atom_site_fract_y
  _atom_site_fract_z
  _atom_site_occupancy
  Cd  Cd1       1.0  0.74151  0.99094  0.21027  1.0000
  Cd  Cd2       1.0  0.25848  0.00906  0.78973  1.0000
  Cd  Cd3       1.0  0.73782  0.47047  0.27967  1.0000
  Cd  Cd4       1.0  0.26218  0.52954  0.72033  1.0000
  H   H1        1.0  0.31495  0.01747  0.33026  1.0000
  H   H2        1.0  0.68504  0.98253  0.66974  1.0000
  H   H3        1.0  0.27517  0.16548  0.22791  1.0000
  H   H4        1.0  0.72482  0.83452  0.77209  1.0000
  H   H5        1.0  0.18338  0.86096  0.11758  1.0000
  H   H6        1.0  0.81662  0.13904  0.88242  1.0000
  H   H7        1.0  0.21404  0.95291  0.20050  1.0000
  H   H8        1.0  0.78595  0.04709  0.79950  1.0000
  H   H9        1.0  0.17939  0.45822  0.19372  1.0000
  H   H10       1.0  0.82061  0.54178  0.80628  1.0000
  H   H11       1.0  0.18802  0.36719  0.31700  1.0000
  H   H12       1.0  0.81198  0.63281  0.68300  1.0000
  H   H13       1.0  0.30893  0.56830  0.37955  1.0000
  H   H14       1.0  0.69107  0.43170  0.62045  1.0000
  H   H15       1.0  0.28030  0.69554  0.26614  1.0000
  H   H16       1.0  0.71969  0.30446  0.73386  1.0000
  C   C1        1.0  0.74319  0.47645  0.03469  1.0000
  C   C2        1.0  0.25683  0.52355  0.96531  1.0000
  C   C3        1.0  0.73931  0.63767  0.03704  1.0000
  C   C4        1.0  0.26070  0.36233  0.96296  1.0000
  C   C5        1.0  0.76540  0.81508  0.45734  1.0000
  C   C6        1.0  0.23460  0.18492  0.54266  1.0000
  C   C7        1.0  0.76115  0.97796  0.45476  1.0000
  C   C8        1.0  0.23885  0.02204  0.54524  1.0000
  N   N1        1.0  0.76356  0.41437  0.94901  1.0000
  N   N2        1.0  0.23645  0.58562  0.05100  1.0000
  N   N3        1.0  0.75990  0.26180  0.98747  1.0000
  N   N4        1.0  0.24010  0.73820  0.01253  1.0000
  N   N5        1.0  0.73840  0.23371  0.09219  1.0000
  N   N6        1.0  0.26159  0.76629  0.90781  1.0000
  N   N7        1.0  0.72781  0.36631  0.12439  1.0000
  N   N8        1.0  0.27219  0.63368  0.87561  1.0000
  N   N9        1.0  0.72927  0.67991  0.12920  1.0000
  N   N10       1.0  0.27073  0.32009  0.87080  1.0000
  N   N11       1.0  0.74856  0.76062  0.95456  1.0000
  N   N12       1.0  0.25144  0.23937  0.04544  1.0000
  N   N13       1.0  0.74388  0.88197  0.99721  1.0000
  N   N14       1.0  0.25612  0.11802  0.00279  1.0000
  N   N15       1.0  0.76736  0.76926  0.36734  1.0000
  N   N16       1.0  0.23264  0.23074  0.63265  1.0000
  N   N17       1.0  0.76029  0.61702  0.39875  1.0000
  N   N18       1.0  0.23971  0.38298  0.60125  1.0000
  N   N19       1.0  0.75461  0.57261  0.50267  1.0000
  N   N20       1.0  0.24539  0.42739  0.49733  1.0000
  N   N21       1.0  0.75800  0.69498  0.54210  1.0000
  N   N22       1.0  0.24200  0.30502  0.45790  1.0000
  N   N23       1.0  0.74803  0.04528  0.53703  1.0000
  N   N24       1.0  0.25197  0.95473  0.46297  1.0000
  N   N25       1.0  0.74669  0.19851  0.49474  1.0000
  N   N26       1.0  0.25331  0.80149  0.50526  1.0000
  N   N27       1.0  0.75711  0.22174  0.39087  1.0000
  N   N28       1.0  0.24289  0.77826  0.60913  1.0000
  N   N29       1.0  0.76555  0.08597  0.36270  1.0000
  N   N30       1.0  0.23445  0.91403  0.63730  1.0000
  N   N31       1.0  0.73269  0.83344  0.10132  1.0000
  N   N32       1.0  0.26731  0.16656  0.89868  1.0000
  O   O1        1.0  0.35544  0.04607  0.25191  1.0000
  O   O2        1.0  0.64455  0.95393  0.74809  1.0000
  O   O3        1.0  0.13838  0.88036  0.19068  1.0000
  O   O4        1.0  0.86161  0.11964  0.80932  1.0000
  O   O5        1.0  0.12775  0.37917  0.24940  1.0000
  O   O6        1.0  0.87225  0.62083  0.75060  1.0000
  O   O7        1.0  0.36337  0.58253  0.30399  1.0000
  O   O8        1.0  0.63663  0.41747  0.69601  1.0000
