data_image0
_chemical_formula_structural       Cd2H30C30N4O8F4
_chemical_formula_sum              "Cd2 H30 C30 N4 O8 F4"
_cell_length_a       8.86012
_cell_length_b       8.78637
_cell_length_c       10.8364
_cell_angle_alpha    97.6733
_cell_angle_beta     96.0412
_cell_angle_gamma    105.199

_space_group_name_H-M_alt    "P 1"
_space_group_IT_number       1

loop_
  _space_group_symop_operation_xyz
  'x, y, z'

loop_
  _atom_site_type_symbol
  _atom_site_label
  _atom_site_symmetry_multiplicity
  _atom_site_fract_x
  _atom_site_fract_y
  _atom_site_fract_z
  _atom_site_occupancy
  Cd  Cd1       1.0  0.00364  0.46096  0.12682  1.0000
  Cd  Cd2       1.0  0.99636  0.53904  0.87318  1.0000
  H   H1        1.0  0.94432  0.01592  0.16244  1.0000
  H   H2        1.0  0.05568  0.98407  0.83756  1.0000
  H   H3        1.0  0.80465  0.94265  0.94117  1.0000
  H   H4        1.0  0.19535  0.05735  0.05883  1.0000
  H   H5        1.0  0.71427  0.05135  0.04486  1.0000
  H   H6        1.0  0.28573  0.94865  0.95514  1.0000
  H   H7        1.0  0.60577  0.68726  0.95303  1.0000
  H   H8        1.0  0.39423  0.31275  0.04697  1.0000
  H   H9        1.0  0.50878  0.82579  0.90584  1.0000
  H   H10       1.0  0.49122  0.17421  0.09416  1.0000
  H   H11       1.0  0.46485  0.90107  0.12552  1.0000
  H   H12       1.0  0.53515  0.09893  0.87448  1.0000
  H   H13       1.0  0.61941  0.64102  0.18537  1.0000
  H   H14       1.0  0.38059  0.35898  0.81463  1.0000
  H   H15       1.0  0.52586  0.74464  0.28980  1.0000
  H   H16       1.0  0.47414  0.25536  0.71020  1.0000
  H   H17       1.0  0.81823  0.87188  0.32765  1.0000
  H   H18       1.0  0.18177  0.12812  0.67235  1.0000
  H   H19       1.0  0.71793  0.00523  0.27360  1.0000
  H   H20       1.0  0.28207  0.99477  0.72641  1.0000
  H   H21       1.0  0.76580  0.42460  0.34678  1.0000
  H   H22       1.0  0.23420  0.57541  0.65323  1.0000
  H   H23       1.0  0.16986  0.25726  0.33416  1.0000
  H   H24       1.0  0.83014  0.74274  0.66584  1.0000
  H   H25       1.0  0.04107  0.19010  0.55309  1.0000
  H   H26       1.0  0.95893  0.80990  0.44691  1.0000
  H   H27       1.0  0.72514  0.39571  0.58329  1.0000
  H   H28       1.0  0.27485  0.60428  0.41671  1.0000
  H   H29       1.0  0.83496  0.28482  0.66055  1.0000
  H   H30       1.0  0.16504  0.71518  0.33945  1.0000
  C   C1        1.0  0.91155  0.76973  0.10410  1.0000
  C   C2        1.0  0.08845  0.23027  0.89590  1.0000
  C   C3        1.0  0.84087  0.90967  0.13559  1.0000
  C   C4        1.0  0.15913  0.09033  0.86441  1.0000
  C   C5        1.0  0.73822  0.93494  0.02106  1.0000
  C   C6        1.0  0.26178  0.06506  0.97894  1.0000
  C   C7        1.0  0.58213  0.80210  0.98522  1.0000
  C   C8        1.0  0.41787  0.19791  0.01478  1.0000
  C   C9        1.0  0.49045  0.78533  0.09732  1.0000
  C   C10       1.0  0.50955  0.21467  0.90268  1.0000
  C   C11       1.0  0.59223  0.75582  0.20999  1.0000
  C   C12       1.0  0.40777  0.24417  0.79001  1.0000
  C   C13       1.0  0.74610  0.89150  0.24591  1.0000
  C   C14       1.0  0.25390  0.10850  0.75409  1.0000
  C   C15       1.0  0.32555  0.66588  0.06437  1.0000
  C   C16       1.0  0.67445  0.33412  0.93563  1.0000
  C   C17       1.0  0.85902  0.37022  0.37137  1.0000
  C   C18       1.0  0.14098  0.62978  0.62863  1.0000
  C   C19       1.0  0.06704  0.28164  0.36926  1.0000
  C   C20       1.0  0.93297  0.71836  0.63074  1.0000
  C   C21       1.0  0.00476  0.24586  0.47619  1.0000
  C   C22       1.0  0.99524  0.75414  0.52381  1.0000
  C   C23       1.0  0.76727  0.28889  0.57119  1.0000
  C   C24       1.0  0.23274  0.71111  0.42881  1.0000
  C   C25       1.0  0.62969  0.14066  0.53467  1.0000
  C   C26       1.0  0.37031  0.85934  0.46533  1.0000
  C   C27       1.0  0.63245  0.99933  0.57895  1.0000
  C   C28       1.0  0.36755  0.00067  0.42105  1.0000
  C   C29       1.0  0.49440  0.13793  0.45489  1.0000
  C   C30       1.0  0.50561  0.86207  0.54511  1.0000
  N   N1        1.0  0.97512  0.35932  0.30527  1.0000
  N   N2        1.0  0.02488  0.64069  0.69473  1.0000
  N   N3        1.0  0.87384  0.30361  0.47637  1.0000
  N   N4        1.0  0.12616  0.69640  0.52363  1.0000
  O   O1        1.0  0.94218  0.69448  0.19226  1.0000
  O   O2        1.0  0.05782  0.30552  0.80773  1.0000
  O   O3        1.0  0.93757  0.74091  0.99143  1.0000
  O   O4        1.0  0.06242  0.25909  0.00857  1.0000
  O   O5        1.0  0.26349  0.60612  0.15455  1.0000
  O   O6        1.0  0.73651  0.39388  0.84545  1.0000
  O   O7        1.0  0.25958  0.64063  0.95070  1.0000
  O   O8        1.0  0.74042  0.35937  0.04930  1.0000
  F   F1        1.0  0.76112  0.99458  0.65617  1.0000
  F   F2        1.0  0.23888  0.00542  0.34383  1.0000
  F   F3        1.0  0.48468  0.27281  0.40992  1.0000
  F   F4        1.0  0.51533  0.72719  0.59008  1.0000
