data_image0
_chemical_formula_structural       Zn2H8C4N16O4
_chemical_formula_sum              "Zn2 H8 C4 N16 O4"
_cell_length_a       7.50914
_cell_length_b       7.50916
_cell_length_c       7.77814
_cell_angle_alpha    63.1783
_cell_angle_beta     63.1784
_cell_angle_gamma    86.611

_space_group_name_H-M_alt    "P 1"
_space_group_IT_number       1

loop_
  _space_group_symop_operation_xyz
  'x, y, z'

loop_
  _atom_site_type_symbol
  _atom_site_label
  _atom_site_symmetry_multiplicity
  _atom_site_fract_x
  _atom_site_fract_y
  _atom_site_fract_z
  _atom_site_occupancy
  Zn  Zn1       1.0  0.29070  0.70930  0.75000  1.0000
  Zn  Zn2       1.0  0.70930  0.29070  0.25000  1.0000
  H   H1        1.0  0.40282  0.70389  0.36249  1.0000
  H   H2        1.0  0.29611  0.59718  0.13751  1.0000
  H   H3        1.0  0.59718  0.29611  0.63751  1.0000
  H   H4        1.0  0.70389  0.40282  0.86249  1.0000
  H   H5        1.0  0.15679  0.69321  0.48386  1.0000
  H   H6        1.0  0.30679  0.84321  0.01614  1.0000
  H   H7        1.0  0.84321  0.30679  0.51614  1.0000
  H   H8        1.0  0.69321  0.15679  0.98386  1.0000
  C   C1        1.0  0.91611  0.91981  0.34211  1.0000
  C   C2        1.0  0.08019  0.08389  0.15789  1.0000
  C   C3        1.0  0.08390  0.08019  0.65790  1.0000
  C   C4        1.0  0.91981  0.91610  0.84211  1.0000
  N   N1        1.0  0.61243  0.77354  0.58121  1.0000
  N   N2        1.0  0.22646  0.38757  0.91879  1.0000
  N   N3        1.0  0.38757  0.22646  0.41879  1.0000
  N   N4        1.0  0.77353  0.61243  0.08121  1.0000
  N   N5        1.0  0.73268  0.64387  0.62518  1.0000
  N   N6        1.0  0.35613  0.26732  0.87483  1.0000
  N   N7        1.0  0.26733  0.35613  0.37482  1.0000
  N   N8        1.0  0.64387  0.73268  0.12517  1.0000
  N   N9        1.0  0.72322  0.94912  0.40397  1.0000
  N   N10       1.0  0.05088  0.27678  0.09603  1.0000
  N   N11       1.0  0.27678  0.05088  0.59603  1.0000
  N   N12       1.0  0.94912  0.72322  0.90397  1.0000
  N   N13       1.0  0.92540  0.73249  0.47647  1.0000
  N   N14       1.0  0.26751  0.07459  0.02353  1.0000
  N   N15       1.0  0.07460  0.26751  0.52353  1.0000
  N   N16       1.0  0.73249  0.92540  0.97647  1.0000
  O   O1        1.0  0.28679  0.71861  0.48186  1.0000
  O   O2        1.0  0.28139  0.71322  0.01814  1.0000
  O   O3        1.0  0.71321  0.28139  0.51814  1.0000
  O   O4        1.0  0.71861  0.28679  0.98185  1.0000
