data_image0
_chemical_formula_structural       K2Nd2H28C8N36O12
_chemical_formula_sum              "K2 Nd2 H28 C8 N36 O12"
_cell_length_a       7.35
_cell_length_b       9.71614
_cell_length_c       12.7418
_cell_angle_alpha    90
_cell_angle_beta     89.9997
_cell_angle_gamma    97.7074

_space_group_name_H-M_alt    "P 1"
_space_group_IT_number       1

loop_
  _space_group_symop_operation_xyz
  'x, y, z'

loop_
  _atom_site_type_symbol
  _atom_site_label
  _atom_site_symmetry_multiplicity
  _atom_site_fract_x
  _atom_site_fract_y
  _atom_site_fract_z
  _atom_site_occupancy
  K   K1        1.0  0.44474  0.49423  0.75000  1.0000
  K   K2        1.0  0.55527  0.50577  0.25001  1.0000
  Nd  Nd1       1.0  0.81027  0.22359  0.75000  1.0000
  Nd  Nd2       1.0  0.18973  0.77641  0.25000  1.0000
  H   H1        1.0  0.86512  0.19954  0.14055  1.0000
  H   H2        1.0  0.13489  0.80046  0.64055  1.0000
  H   H3        1.0  0.13489  0.80046  0.85945  1.0000
  H   H4        1.0  0.86512  0.19954  0.35945  1.0000
  H   H5        1.0  0.87410  0.53826  0.81427  1.0000
  H   H6        1.0  0.12590  0.46174  0.31427  1.0000
  H   H7        1.0  0.12590  0.46174  0.18573  1.0000
  H   H8        1.0  0.87409  0.53826  0.68572  1.0000
  H   H9        1.0  0.42890  0.06532  0.81244  1.0000
  H   H10       1.0  0.57110  0.93468  0.31244  1.0000
  H   H11       1.0  0.57110  0.93468  0.18756  1.0000
  H   H12       1.0  0.42890  0.06532  0.68756  1.0000
  H   H13       1.0  0.13926  0.07381  0.81244  1.0000
  H   H14       1.0  0.86074  0.92619  0.31244  1.0000
  H   H15       1.0  0.86074  0.92619  0.18755  1.0000
  H   H16       1.0  0.13926  0.07381  0.68755  1.0000
  H   H17       1.0  0.66575  0.39802  0.94221  1.0000
  H   H18       1.0  0.33424  0.60199  0.44221  1.0000
  H   H19       1.0  0.33425  0.60199  0.05779  1.0000
  H   H20       1.0  0.66575  0.39802  0.55779  1.0000
  H   H21       1.0  0.52138  0.26063  0.93402  1.0000
  H   H22       1.0  0.47862  0.73938  0.43402  1.0000
  H   H23       1.0  0.47863  0.73938  0.06598  1.0000
  H   H24       1.0  0.52138  0.26062  0.56598  1.0000
  H   H25       1.0  0.51848  0.81988  0.80959  1.0000
  H   H26       1.0  0.48152  0.18012  0.30959  1.0000
  H   H27       1.0  0.48152  0.18012  0.19041  1.0000
  H   H28       1.0  0.51848  0.81988  0.69041  1.0000
  C   C1        1.0  0.00302  0.28823  0.01309  1.0000
  C   C2        1.0  0.99697  0.71177  0.51309  1.0000
  C   C3        1.0  0.99698  0.71177  0.98691  1.0000
  C   C4        1.0  0.00302  0.28823  0.48690  1.0000
  C   C5        1.0  0.78972  0.07314  0.01683  1.0000
  C   C6        1.0  0.21028  0.92685  0.51683  1.0000
  C   C7        1.0  0.21028  0.92686  0.98317  1.0000
  C   C8        1.0  0.78972  0.07314  0.48317  1.0000
  N   N1        1.0  0.03182  0.30248  0.90911  1.0000
  N   N2        1.0  0.96818  0.69752  0.40911  1.0000
  N   N3        1.0  0.96818  0.69752  0.09089  1.0000
  N   N4        1.0  0.03182  0.30248  0.59089  1.0000
  N   N5        1.0  0.17327  0.40724  0.90036  1.0000
  N   N6        1.0  0.82673  0.59276  0.40036  1.0000
  N   N7        1.0  0.82673  0.59276  0.09964  1.0000
  N   N8        1.0  0.17327  0.40724  0.59964  1.0000
  N   N9        1.0  0.22194  0.45289  0.99418  1.0000
  N   N10       1.0  0.77805  0.54711  0.49418  1.0000
  N   N11       1.0  0.77806  0.54711  0.00582  1.0000
  N   N12       1.0  0.22194  0.45289  0.50582  1.0000
  N   N13       1.0  0.11781  0.38016  0.06780  1.0000
  N   N14       1.0  0.88219  0.61984  0.56780  1.0000
  N   N15       1.0  0.88220  0.61984  0.93220  1.0000
  N   N16       1.0  0.11780  0.38016  0.43220  1.0000
  N   N17       1.0  0.87488  0.19292  0.06126  1.0000
  N   N18       1.0  0.12512  0.80708  0.56127  1.0000
  N   N19       1.0  0.12513  0.80708  0.93874  1.0000
  N   N20       1.0  0.87488  0.19292  0.43874  1.0000
  N   N21       1.0  0.76535  0.04675  0.91382  1.0000
  N   N22       1.0  0.23465  0.95325  0.41383  1.0000
  N   N23       1.0  0.23466  0.95325  0.08618  1.0000
  N   N24       1.0  0.76535  0.04675  0.58618  1.0000
  N   N25       1.0  0.67073  0.91627  0.91028  1.0000
  N   N26       1.0  0.32927  0.08373  0.41028  1.0000
  N   N27       1.0  0.32927  0.08373  0.08973  1.0000
  N   N28       1.0  0.67073  0.91627  0.58972  1.0000
  N   N29       1.0  0.64078  0.86911  0.00531  1.0000
  N   N30       1.0  0.35923  0.13089  0.50531  1.0000
  N   N31       1.0  0.35923  0.13089  0.99469  1.0000
  N   N32       1.0  0.64077  0.86911  0.49469  1.0000
  N   N33       1.0  0.71531  0.96468  0.07569  1.0000
  N   N34       1.0  0.28468  0.03532  0.57569  1.0000
  N   N35       1.0  0.28469  0.03531  0.92431  1.0000
  N   N36       1.0  0.71532  0.96468  0.42431  1.0000
  O   O1        1.0  0.85120  0.47788  0.75000  1.0000
  O   O2        1.0  0.14880  0.52212  0.25000  1.0000
  O   O3        1.0  0.50166  0.10100  0.75000  1.0000
  O   O4        1.0  0.49834  0.89900  0.25000  1.0000
  O   O5        1.0  0.05834  0.07227  0.75000  1.0000
  O   O6        1.0  0.94165  0.92773  0.25000  1.0000
  O   O7        1.0  0.61500  0.32224  0.89273  1.0000
  O   O8        1.0  0.38500  0.67776  0.39273  1.0000
  O   O9        1.0  0.38500  0.67776  0.10727  1.0000
  O   O10       1.0  0.61500  0.32224  0.60727  1.0000
  O   O11       1.0  0.44495  0.77606  0.75000  1.0000
  O   O12       1.0  0.55505  0.22395  0.25000  1.0000
