data_image0
_chemical_formula_structural       Co2H26C24S4N2
_chemical_formula_sum              "Co2 H26 C24 S4 N2"
_cell_length_a       6.82293
_cell_length_b       7.08214
_cell_length_c       13.3571
_cell_angle_alpha    97.0141
_cell_angle_beta     105.086
_cell_angle_gamma    89.8761

_space_group_name_H-M_alt    "P 1"
_space_group_IT_number       1

loop_
  _space_group_symop_operation_xyz
  'x, y, z'

loop_
  _atom_site_type_symbol
  _atom_site_label
  _atom_site_symmetry_multiplicity
  _atom_site_fract_x
  _atom_site_fract_y
  _atom_site_fract_z
  _atom_site_occupancy
  Co  Co1       1.0  0.59599  0.71034  0.18470  1.0000
  Co  Co2       1.0  0.59156  0.20780  0.18662  1.0000
  H   H1        1.0  0.91343  0.81599  0.08568  1.0000
  H   H2        1.0  0.18041  0.32223  0.08763  1.0000
  H   H3        1.0  0.09293  0.77588  0.94514  1.0000
  H   H4        1.0  0.85925  0.28373  0.94634  1.0000
  H   H5        1.0  0.92085  0.85547  0.76735  1.0000
  H   H6        1.0  0.85442  0.35639  0.76769  1.0000
  H   H7        1.0  0.57625  0.98941  0.73292  1.0000
  H   H8        1.0  0.16750  0.48128  0.73327  1.0000
  H   H9        1.0  0.39395  0.02658  0.87365  1.0000
  H   H10       1.0  0.49182  0.51675  0.87490  1.0000
  H   H11       1.0  0.69187  0.98399  0.39127  1.0000
  H   H12       1.0  0.68004  0.49394  0.38754  1.0000
  H   H13       1.0  0.77952  0.14414  0.57279  1.0000
  H   H14       1.0  0.77724  0.64972  0.56969  1.0000
  H   H15       1.0  0.09124  0.05817  0.70238  1.0000
  H   H16       1.0  0.60889  0.55031  0.70073  1.0000
  H   H17       1.0  0.30798  0.79968  0.64810  1.0000
  H   H18       1.0  0.34634  0.28434  0.64616  1.0000
  H   H19       1.0  0.22431  0.64351  0.46645  1.0000
  H   H20       1.0  0.24522  0.13168  0.46404  1.0000
  H   H21       1.0  0.25102  0.66709  0.23467  1.0000
  H   H22       1.0  0.98760  0.16998  0.25366  1.0000
  H   H23       1.0  0.44107  0.67042  0.33857  1.0000
  H   H24       1.0  0.88380  0.18038  0.35183  1.0000
  H   H25       1.0  0.36536  0.87199  0.29020  1.0000
  H   H26       1.0  0.91763  0.37712  0.30080  1.0000
  C   C1        1.0  0.64170  0.92052  0.98762  1.0000
  C   C2        1.0  0.35601  0.41849  0.98925  1.0000
  C   C3        1.0  0.83991  0.85289  0.00811  1.0000
  C   C4        1.0  0.17690  0.35578  0.00960  1.0000
  C   C5        1.0  0.93974  0.83011  0.92897  1.0000
  C   C6        1.0  0.99728  0.33369  0.92998  1.0000
  C   C7        1.0  0.84364  0.87579  0.82947  1.0000
  C   C8        1.0  0.99462  0.37545  0.83011  1.0000
  C   C9        1.0  0.64890  0.94898  0.80991  1.0000
  C   C10       1.0  0.17129  0.44383  0.81059  1.0000
  C   C11       1.0  0.54663  0.97100  0.88840  1.0000
  C   C12       1.0  0.35273  0.46498  0.88961  1.0000
  C   C13       1.0  0.95590  0.80718  0.41449  1.0000
  C   C14       1.0  0.45043  0.30557  0.41120  1.0000
  C   C15       1.0  0.82930  0.94572  0.44701  1.0000
  C   C16       1.0  0.60372  0.44985  0.44367  1.0000
  C   C17       1.0  0.87829  0.03513  0.54996  1.0000
  C   C18       1.0  0.65994  0.53683  0.54710  1.0000
  C   C19       1.0  0.05208  0.98580  0.62267  1.0000
  C   C20       1.0  0.56641  0.48018  0.62049  1.0000
  C   C21       1.0  0.17421  0.84310  0.59194  1.0000
  C   C22       1.0  0.41819  0.33323  0.58963  1.0000
  C   C23       1.0  0.12769  0.75463  0.48918  1.0000
  C   C24       1.0  0.36003  0.24683  0.48642  1.0000
  S   S1        1.0  0.50304  0.93632  0.08390  1.0000
  S   S2        1.0  0.59070  0.43438  0.08684  1.0000
  S   S3        1.0  0.91093  0.69829  0.28465  1.0000
  S   S4        1.0  0.36564  0.19798  0.28083  1.0000
  N   N1        1.0  0.39127  0.72978  0.27057  1.0000
  N   N2        1.0  0.87537  0.23399  0.28303  1.0000
