data_image0
_chemical_formula_structural       Cd4H28C20N8O20
_chemical_formula_sum              "Cd4 H28 C20 N8 O20"
_cell_length_a       8.30051
_cell_length_b       8.93072
_cell_length_c       12.3269
_cell_angle_alpha    99.8532
_cell_angle_beta     89.9997
_cell_angle_gamma    90.0002

_space_group_name_H-M_alt    "P 1"
_space_group_IT_number       1

loop_
  _space_group_symop_operation_xyz
  'x, y, z'

loop_
  _atom_site_type_symbol
  _atom_site_label
  _atom_site_symmetry_multiplicity
  _atom_site_fract_x
  _atom_site_fract_y
  _atom_site_fract_z
  _atom_site_occupancy
  Cd  Cd1       1.0  0.17866  0.07966  0.61563  1.0000
  Cd  Cd2       1.0  0.67866  0.92033  0.88437  1.0000
  Cd  Cd3       1.0  0.82134  0.92034  0.38437  1.0000
  Cd  Cd4       1.0  0.32134  0.07966  0.11563  1.0000
  H   H1        1.0  0.16352  0.94342  0.36992  1.0000
  H   H2        1.0  0.66353  0.05657  0.13008  1.0000
  H   H3        1.0  0.83648  0.05657  0.63008  1.0000
  H   H4        1.0  0.33648  0.94343  0.86993  1.0000
  H   H5        1.0  0.32086  0.58794  0.36213  1.0000
  H   H6        1.0  0.82087  0.41205  0.13787  1.0000
  H   H7        1.0  0.67914  0.41205  0.63786  1.0000
  H   H8        1.0  0.17914  0.58795  0.86214  1.0000
  H   H9        1.0  0.03873  0.23313  0.45900  1.0000
  H   H10       1.0  0.53873  0.76687  0.04101  1.0000
  H   H11       1.0  0.96126  0.76687  0.54101  1.0000
  H   H12       1.0  0.46127  0.23313  0.95899  1.0000
  H   H13       1.0  0.22926  0.20030  0.41551  1.0000
  H   H14       1.0  0.72926  0.79970  0.08450  1.0000
  H   H15       1.0  0.77073  0.79970  0.58449  1.0000
  H   H16       1.0  0.27075  0.20031  0.91551  1.0000
  H   H17       1.0  0.07656  0.05683  0.29249  1.0000
  H   H18       1.0  0.57656  0.94317  0.20751  1.0000
  H   H19       1.0  0.92343  0.94316  0.70751  1.0000
  H   H20       1.0  0.42345  0.05683  0.79249  1.0000
  H   H21       1.0  0.52820  0.15838  0.61684  1.0000
  H   H22       1.0  0.02820  0.84162  0.88316  1.0000
  H   H23       1.0  0.47180  0.84162  0.38316  1.0000
  H   H24       1.0  0.97180  0.15838  0.11684  1.0000
  H   H25       1.0  0.43493  0.28622  0.69945  1.0000
  H   H26       1.0  0.93493  0.71377  0.80055  1.0000
  H   H27       1.0  0.56506  0.71378  0.30055  1.0000
  H   H28       1.0  0.06506  0.28622  0.19945  1.0000
  C   C1        1.0  0.33750  0.79204  0.54928  1.0000
  C   C2        1.0  0.83750  0.20795  0.95071  1.0000
  C   C3        1.0  0.66251  0.20796  0.45071  1.0000
  C   C4        1.0  0.16249  0.79205  0.04928  1.0000
  C   C5        1.0  0.42144  0.64116  0.52574  1.0000
  C   C6        1.0  0.92143  0.35884  0.97426  1.0000
  C   C7        1.0  0.57857  0.35884  0.47426  1.0000
  C   C8        1.0  0.07856  0.64116  0.02574  1.0000
  C   C9        1.0  0.55853  0.68806  0.71309  1.0000
  C   C10       1.0  0.05853  0.31196  0.78690  1.0000
  C   C11       1.0  0.44148  0.31194  0.28691  1.0000
  C   C12       1.0  0.94147  0.68805  0.21310  1.0000
  C   C13       1.0  0.52024  0.58978  0.60457  1.0000
  C   C14       1.0  0.02023  0.41022  0.89542  1.0000
  C   C15       1.0  0.47977  0.41022  0.39542  1.0000
  C   C16       1.0  0.97976  0.58978  0.10458  1.0000
  C   C17       1.0  0.40175  0.55033  0.42215  1.0000
  C   C18       1.0  0.90175  0.44967  0.07785  1.0000
  C   C19       1.0  0.59825  0.44966  0.57785  1.0000
  C   C20       1.0  0.09825  0.55034  0.92215  1.0000
  N   N1        1.0  0.12987  0.15489  0.44928  1.0000
  N   N2        1.0  0.62987  0.84511  0.05073  1.0000
  N   N3        1.0  0.87012  0.84511  0.55073  1.0000
  N   N4        1.0  0.37013  0.15490  0.94928  1.0000
  N   N5        1.0  0.07772  0.02599  0.36936  1.0000
  N   N6        1.0  0.57772  0.97401  0.13065  1.0000
  N   N7        1.0  0.92228  0.97401  0.63065  1.0000
  N   N8        1.0  0.42228  0.02599  0.86936  1.0000
  O   O1        1.0  0.33510  0.87268  0.47239  1.0000
  O   O2        1.0  0.83509  0.12732  0.02761  1.0000
  O   O3        1.0  0.66491  0.12732  0.52762  1.0000
  O   O4        1.0  0.16491  0.87267  0.97237  1.0000
  O   O5        1.0  0.27103  0.83439  0.64200  1.0000
  O   O6        1.0  0.77102  0.16561  0.85800  1.0000
  O   O7        1.0  0.72899  0.16561  0.35800  1.0000
  O   O8        1.0  0.22897  0.83440  0.14200  1.0000
  O   O9        1.0  0.63022  0.81379  0.70375  1.0000
  O   O10       1.0  0.13025  0.18625  0.79623  1.0000
  O   O11       1.0  0.36977  0.18621  0.29624  1.0000
  O   O12       1.0  0.86975  0.81377  0.20376  1.0000
  O   O13       1.0  0.52968  0.64465  0.80259  1.0000
  O   O14       1.0  0.02964  0.35537  0.69741  1.0000
  O   O15       1.0  0.47034  0.35535  0.19741  1.0000
  O   O16       1.0  0.97035  0.64465  0.30260  1.0000
  O   O17       1.0  0.43569  0.17721  0.67218  1.0000
  O   O18       1.0  0.93568  0.82278  0.82782  1.0000
  O   O19       1.0  0.56431  0.82278  0.32782  1.0000
  O   O20       1.0  0.06431  0.17722  0.17218  1.0000
