data_image0
_chemical_formula_structural       H20Pb2C28N24O8
_chemical_formula_sum              "H20 Pb2 C28 N24 O8"
_cell_length_a       7.14911
_cell_length_b       8.40127
_cell_length_c       16.4694
_cell_angle_alpha    100.243
_cell_angle_beta     98.4639
_cell_angle_gamma    97.9753

_space_group_name_H-M_alt    "P 1"
_space_group_IT_number       1

loop_
  _space_group_symop_operation_xyz
  'x, y, z'

loop_
  _atom_site_type_symbol
  _atom_site_label
  _atom_site_symmetry_multiplicity
  _atom_site_fract_x
  _atom_site_fract_y
  _atom_site_fract_z
  _atom_site_occupancy
  H   H1        1.0  0.52041  0.85800  0.51127  1.0000
  H   H2        1.0  0.47953  0.14207  0.48874  1.0000
  H   H3        1.0  0.82295  0.92850  0.30601  1.0000
  H   H4        1.0  0.17701  0.07155  0.69401  1.0000
  H   H5        1.0  0.86176  0.93054  0.41677  1.0000
  H   H6        1.0  0.13828  0.06950  0.58325  1.0000
  H   H7        1.0  0.52168  0.87189  0.66492  1.0000
  H   H8        1.0  0.47831  0.12812  0.33509  1.0000
  H   H9        1.0  0.15276  0.42426  0.61151  1.0000
  H   H10       1.0  0.84734  0.57570  0.38849  1.0000
  H   H11       1.0  0.92157  0.51756  0.07135  1.0000
  H   H12       1.0  0.07838  0.48237  0.92865  1.0000
  H   H13       1.0  0.56234  0.83099  0.99195  1.0000
  H   H14       1.0  0.43778  0.16908  0.00807  1.0000
  H   H15       1.0  0.74104  0.48353  0.18817  1.0000
  H   H16       1.0  0.25888  0.51642  0.81182  1.0000
  H   H17       1.0  0.91534  0.10284  0.12593  1.0000
  H   H18       1.0  0.08468  0.89717  0.87410  1.0000
  H   H19       1.0  0.04544  0.13925  0.04352  1.0000
  H   H20       1.0  0.95449  0.86073  0.95648  1.0000
  Pb  Pb1       1.0  0.31670  0.59198  0.28712  1.0000
  Pb  Pb2       1.0  0.68328  0.40801  0.71288  1.0000
  C   C1        1.0  0.43984  0.75876  0.53298  1.0000
  C   C2        1.0  0.56014  0.24128  0.46703  1.0000
  C   C3        1.0  0.24983  0.50622  0.50361  1.0000
  C   C4        1.0  0.75019  0.49380  0.49639  1.0000
  C   C5        1.0  0.92939  0.95641  0.36384  1.0000
  C   C6        1.0  0.07061  0.04362  0.63617  1.0000
  C   C7        1.0  0.15424  0.36115  0.44105  1.0000
  C   C8        1.0  0.84578  0.63887  0.55895  1.0000
  C   C9        1.0  0.50453  0.73703  0.10253  1.0000
  C   C10       1.0  0.49546  0.26296  0.89746  1.0000
  C   C11       1.0  0.43731  0.76795  0.61859  1.0000
  C   C12       1.0  0.56271  0.23206  0.38142  1.0000
  C   C13       1.0  0.24013  0.51893  0.58891  1.0000
  C   C14       1.0  0.75995  0.48105  0.41109  1.0000
  C   C15       1.0  0.79926  0.58000  0.07856  1.0000
  C   C16       1.0  0.20071  0.41994  0.92144  1.0000
  C   C17       1.0  0.60263  0.75325  0.03598  1.0000
  C   C18       1.0  0.39741  0.24676  0.96403  1.0000
  C   C19       1.0  0.34619  0.82437  0.11825  1.0000
  C   C20       1.0  0.65379  0.17561  0.88174  1.0000
  C   C21       1.0  0.08775  0.85012  0.35302  1.0000
  C   C22       1.0  0.91222  0.14990  0.64696  1.0000
  C   C23       1.0  0.70003  0.56148  0.14454  1.0000
  C   C24       1.0  0.29991  0.43848  0.85545  1.0000
  C   C25       1.0  0.05739  0.12427  0.10870  1.0000
  C   C26       1.0  0.94260  0.87572  0.89130  1.0000
  C   C27       1.0  0.17759  0.28249  0.16488  1.0000
  C   C28       1.0  0.82243  0.71750  0.83512  1.0000
  N   N1        1.0  0.75130  0.67580  0.02455  1.0000
  N   N2        1.0  0.24873  0.32419  0.97546  1.0000
  N   N3        1.0  0.33529  0.64911  0.64645  1.0000
  N   N4        1.0  0.66477  0.35086  0.35356  1.0000
  N   N5        1.0  0.04722  0.20612  0.31952  1.0000
  N   N6        1.0  0.95281  0.79390  0.68048  1.0000
  N   N7        1.0  0.34831  0.62741  0.47545  1.0000
  N   N8        1.0  0.65167  0.37263  0.52455  1.0000
  N   N9        1.0  0.00824  0.12956  0.38070  1.0000
  N   N10       1.0  0.99178  0.87046  0.61930  1.0000
  N   N11       1.0  0.55389  0.64078  0.15683  1.0000
  N   N12       1.0  0.44606  0.35919  0.84315  1.0000
  N   N13       1.0  0.11352  0.89806  0.17709  1.0000
  N   N14       1.0  0.88645  0.10190  0.82289  1.0000
  N   N15       1.0  0.07241  0.21945  0.45754  1.0000
  N   N16       1.0  0.92760  0.78058  0.54246  1.0000
  N   N17       1.0  0.23780  0.79658  0.17728  1.0000
  N   N18       1.0  0.76217  0.20338  0.82270  1.0000
  N   N19       1.0  0.13927  0.35319  0.35711  1.0000
  N   N20       1.0  0.86077  0.64682  0.64289  1.0000
  N   N21       1.0  0.29123  0.94281  0.07997  1.0000
  N   N22       1.0  0.70876  0.05719  0.92003  1.0000
  N   N23       1.0  0.14786  0.98308  0.11834  1.0000
  N   N24       1.0  0.85213  0.01691  0.88165  1.0000
  O   O1        1.0  0.02210  0.69926  0.31995  1.0000
  O   O2        1.0  0.97785  0.30076  0.68002  1.0000
  O   O3        1.0  0.26036  0.91518  0.37552  1.0000
  O   O4        1.0  0.73962  0.08482  0.62446  1.0000
  O   O5        1.0  0.34526  0.28110  0.19908  1.0000
  O   O6        1.0  0.65477  0.71890  0.80091  1.0000
  O   O7        1.0  0.08932  0.40576  0.17217  1.0000
  O   O8        1.0  0.91069  0.59422  0.82784  1.0000
