data_image0
_chemical_formula_structural       Mn2H26C30N2O16
_chemical_formula_sum              "Mn2 H26 C30 N2 O16"
_cell_length_a       7.736
_cell_length_b       10.0817
_cell_length_c       11.6022
_cell_angle_alpha    66.7106
_cell_angle_beta     76.1571
_cell_angle_gamma    71.4122

_space_group_name_H-M_alt    "P 1"
_space_group_IT_number       1

loop_
  _space_group_symop_operation_xyz
  'x, y, z'

loop_
  _atom_site_type_symbol
  _atom_site_label
  _atom_site_symmetry_multiplicity
  _atom_site_fract_x
  _atom_site_fract_y
  _atom_site_fract_z
  _atom_site_occupancy
  Mn  Mn1       1.0  0.85550  0.90877  0.93963  1.0000
  Mn  Mn2       1.0  0.14450  0.09123  0.06037  1.0000
  H   H1        1.0  0.14167  0.54301  0.06643  1.0000
  H   H2        1.0  0.85834  0.45699  0.93356  1.0000
  H   H3        1.0  0.61462  0.20365  0.21700  1.0000
  H   H4        1.0  0.38538  0.79635  0.78300  1.0000
  H   H5        1.0  0.55430  0.66500  0.16515  1.0000
  H   H6        1.0  0.44569  0.33500  0.83485  1.0000
  H   H7        1.0  0.85719  0.26810  0.25961  1.0000
  H   H8        1.0  0.14280  0.73190  0.74038  1.0000
  H   H9        1.0  0.88272  0.44940  0.16090  1.0000
  H   H10       1.0  0.11728  0.55059  0.83910  1.0000
  H   H11       1.0  0.85796  0.62301  0.24031  1.0000
  H   H12       1.0  0.14204  0.37698  0.75969  1.0000
  H   H13       1.0  0.73276  0.53148  0.64148  1.0000
  H   H14       1.0  0.26724  0.46852  0.35852  1.0000
  H   H15       1.0  0.67206  0.28814  0.66571  1.0000
  H   H16       1.0  0.32794  0.71186  0.33429  1.0000
  H   H17       1.0  0.70477  0.23097  0.46678  1.0000
  H   H18       1.0  0.29523  0.76902  0.53323  1.0000
  H   H19       1.0  0.75623  0.86800  0.19522  1.0000
  H   H20       1.0  0.24377  0.13200  0.80478  1.0000
  H   H21       1.0  0.57826  0.97089  0.12927  1.0000
  H   H22       1.0  0.42174  0.02911  0.87073  1.0000
  H   H23       1.0  0.04899  0.03927  0.70607  1.0000
  H   H24       1.0  0.95101  0.96072  0.29393  1.0000
  H   H25       1.0  0.89987  0.97467  0.68328  1.0000
  H   H26       1.0  0.10012  0.02534  0.31672  1.0000
  C   C1        1.0  0.22519  0.77737  0.08127  1.0000
  C   C2        1.0  0.77481  0.22264  0.91872  1.0000
  C   C3        1.0  0.33275  0.61797  0.11940  1.0000
  C   C4        1.0  0.66725  0.38203  0.88060  1.0000
  C   C5        1.0  0.26840  0.51003  0.10727  1.0000
  C   C6        1.0  0.73159  0.48997  0.89272  1.0000
  C   C7        1.0  0.36893  0.36102  0.14302  1.0000
  C   C8        1.0  0.63107  0.63898  0.85698  1.0000
  C   C9        1.0  0.30438  0.25031  0.11923  1.0000
  C   C10       1.0  0.69562  0.74969  0.88077  1.0000
  C   C11       1.0  0.53552  0.31981  0.19117  1.0000
  C   C12       1.0  0.46448  0.68019  0.80883  1.0000
  C   C13       1.0  0.60422  0.42860  0.19818  1.0000
  C   C14       1.0  0.39577  0.57141  0.80182  1.0000
  C   C15       1.0  0.50224  0.57739  0.16291  1.0000
  C   C16       1.0  0.49775  0.42261  0.83709  1.0000
  C   C17       1.0  0.79210  0.38785  0.23695  1.0000
  C   C18       1.0  0.20790  0.61214  0.76305  1.0000
  C   C19       1.0  0.81487  0.55536  0.33623  1.0000
  C   C20       1.0  0.18513  0.44464  0.66377  1.0000
  C   C21       1.0  0.79630  0.59642  0.44054  1.0000
  C   C22       1.0  0.20370  0.40357  0.55946  1.0000
  C   C23       1.0  0.74276  0.50018  0.55997  1.0000
  C   C24       1.0  0.25725  0.49982  0.44003  1.0000
  C   C25       1.0  0.70815  0.36703  0.57290  1.0000
  C   C26       1.0  0.29185  0.63297  0.42710  1.0000
  C   C27       1.0  0.72814  0.33244  0.46560  1.0000
  C   C28       1.0  0.27186  0.66756  0.53441  1.0000
  C   C29       1.0  0.84230  0.73839  0.42741  1.0000
  C   C30       1.0  0.15770  0.26160  0.57260  1.0000
  N   N1        1.0  0.78006  0.42637  0.35017  1.0000
  N   N2        1.0  0.21994  0.57362  0.64984  1.0000
  O   O1        1.0  0.10552  0.81933  0.00733  1.0000
  O   O2        1.0  0.89449  0.18068  0.99266  1.0000
  O   O3        1.0  0.26320  0.86130  0.12469  1.0000
  O   O4        1.0  0.73680  0.13870  0.87532  1.0000
  O   O5        1.0  0.38529  0.11197  0.15813  1.0000
  O   O6        1.0  0.61472  0.88803  0.84187  1.0000
  O   O7        1.0  0.16662  0.30057  0.05710  1.0000
  O   O8        1.0  0.83338  0.69943  0.94290  1.0000
  O   O9        1.0  0.86838  0.82841  0.31301  1.0000
  O   O10       1.0  0.13163  0.17158  0.68699  1.0000
  O   O11       1.0  0.85658  0.75343  0.52598  1.0000
  O   O12       1.0  0.14342  0.24656  0.47402  1.0000
  O   O13       1.0  0.68815  0.88847  0.12392  1.0000
  O   O14       1.0  0.31185  0.11153  0.87609  1.0000
  O   O15       1.0  0.99564  0.94873  0.73534  1.0000
  O   O16       1.0  0.00436  0.05127  0.26467  1.0000
