data_image0
_chemical_formula_structural       Cd2H22C30N2O14
_chemical_formula_sum              "Cd2 H22 C30 N2 O14"
_cell_length_a       7.46186
_cell_length_b       10.1888
_cell_length_c       11.9165
_cell_angle_alpha    106.018
_cell_angle_beta     108.236
_cell_angle_gamma    101.512

_space_group_name_H-M_alt    "P 1"
_space_group_IT_number       1

loop_
  _space_group_symop_operation_xyz
  'x, y, z'

loop_
  _atom_site_type_symbol
  _atom_site_label
  _atom_site_symmetry_multiplicity
  _atom_site_fract_x
  _atom_site_fract_y
  _atom_site_fract_z
  _atom_site_occupancy
  Cd  Cd1       1.0  0.59999  0.85008  0.92992  1.0000
  Cd  Cd2       1.0  0.40002  0.14992  0.07008  1.0000
  H   H1        1.0  0.39573  0.62967  0.07853  1.0000
  H   H2        1.0  0.60427  0.37033  0.92147  1.0000
  H   H3        1.0  0.02800  0.85324  0.21206  1.0000
  H   H4        1.0  0.97201  0.14677  0.78794  1.0000
  H   H5        1.0  0.94921  0.41063  0.17841  1.0000
  H   H6        1.0  0.05079  0.58937  0.82159  1.0000
  H   H7        1.0  0.73836  0.72006  0.21457  1.0000
  H   H8        1.0  0.26164  0.27994  0.78544  1.0000
  H   H9        1.0  0.67147  0.53105  0.17650  1.0000
  H   H10       1.0  0.32853  0.46895  0.82350  1.0000
  H   H11       1.0  0.12379  0.66618  0.42497  1.0000
  H   H12       1.0  0.87621  0.33382  0.57503  1.0000
  H   H13       1.0  0.88391  0.72146  0.71553  1.0000
  H   H14       1.0  0.11609  0.27854  0.28447  1.0000
  H   H15       1.0  0.55445  0.67946  0.54906  1.0000
  H   H16       1.0  0.44555  0.32055  0.45094  1.0000
  H   H17       1.0  0.52814  0.63890  0.32421  1.0000
  H   H18       1.0  0.47186  0.36110  0.67579  1.0000
  H   H19       1.0  0.83641  0.08132  0.15782  1.0000
  H   H20       1.0  0.16360  0.91868  0.84218  1.0000
  H   H21       1.0  0.99859  0.01213  0.12541  1.0000
  H   H22       1.0  0.00141  0.98787  0.87459  1.0000
  C   C1        1.0  0.24921  0.37729  0.10631  1.0000
  C   C2        1.0  0.75079  0.62271  0.89369  1.0000
  C   C3        1.0  0.18771  0.51020  0.13433  1.0000
  C   C4        1.0  0.81229  0.48980  0.86567  1.0000
  C   C5        1.0  0.28209  0.63269  0.11769  1.0000
  C   C6        1.0  0.71792  0.36731  0.88231  1.0000
  C   C7        1.0  0.22626  0.75707  0.14703  1.0000
  C   C8        1.0  0.77374  0.24293  0.85297  1.0000
  C   C9        1.0  0.31791  0.88635  0.12287  1.0000
  C   C10       1.0  0.68209  0.11364  0.87712  1.0000
  C   C11       1.0  0.07448  0.75750  0.19225  1.0000
  C   C12       1.0  0.92552  0.24250  0.80775  1.0000
  C   C13       1.0  0.97287  0.63380  0.20330  1.0000
  C   C14       1.0  0.02713  0.36620  0.79670  1.0000
  C   C15       1.0  0.03012  0.51004  0.17450  1.0000
  C   C16       1.0  0.96988  0.48996  0.82550  1.0000
  C   C17       1.0  0.79305  0.63305  0.23422  1.0000
  C   C18       1.0  0.20695  0.36695  0.76578  1.0000
  C   C19       1.0  0.00336  0.67247  0.45701  1.0000
  C   C20       1.0  0.99664  0.32753  0.54299  1.0000
  C   C21       1.0  0.03021  0.69749  0.58282  1.0000
  C   C22       1.0  0.96979  0.30251  0.41718  1.0000
  C   C23       1.0  0.86867  0.70270  0.61759  1.0000
  C   C24       1.0  0.13133  0.29730  0.38241  1.0000
  C   C25       1.0  0.68387  0.67948  0.52478  1.0000
  C   C26       1.0  0.31613  0.32052  0.47523  1.0000
  C   C27       1.0  0.66635  0.65656  0.40157  1.0000
  C   C28       1.0  0.33366  0.34344  0.59843  1.0000
  C   C29       1.0  0.23460  0.71686  0.67607  1.0000
  C   C30       1.0  0.76540  0.28314  0.32393  1.0000
  N   N1        1.0  0.82583  0.65553  0.36990  1.0000
  N   N2        1.0  0.17417  0.34447  0.63010  1.0000
  O   O1        1.0  0.15858  0.26865  0.12166  1.0000
  O   O2        1.0  0.84141  0.73134  0.87834  1.0000
  O   O3        1.0  0.39439  0.37940  0.07000  1.0000
  O   O4        1.0  0.60561  0.62059  0.93000  1.0000
  O   O5        1.0  0.45100  0.88306  0.07858  1.0000
  O   O6        1.0  0.54900  0.11693  0.92142  1.0000
  O   O7        1.0  0.25622  0.99540  0.14899  1.0000
  O   O8        1.0  0.74377  0.00460  0.85100  1.0000
  O   O9        1.0  0.27020  0.78395  0.79329  1.0000
  O   O10       1.0  0.72980  0.21605  0.20671  1.0000
  O   O11       1.0  0.34991  0.66634  0.63388  1.0000
  O   O12       1.0  0.65009  0.33366  0.36612  1.0000
  O   O13       1.0  0.86443  0.98987  0.12656  1.0000
  O   O14       1.0  0.13557  0.01013  0.87344  1.0000
