data_image0
_chemical_formula_structural       Li6Pu2H24C28N4O26
_chemical_formula_sum              "Li6 Pu2 H24 C28 N4 O26"
_cell_length_a       8.61105
_cell_length_b       9.63062
_cell_length_c       12.7208
_cell_angle_alpha    109.394
_cell_angle_beta     97.1058
_cell_angle_gamma    106.172

_space_group_name_H-M_alt    "P 1"
_space_group_IT_number       1

loop_
  _space_group_symop_operation_xyz
  'x, y, z'

loop_
  _atom_site_type_symbol
  _atom_site_label
  _atom_site_symmetry_multiplicity
  _atom_site_fract_x
  _atom_site_fract_y
  _atom_site_fract_z
  _atom_site_occupancy
  Li  Li1       1.0  0.37454  0.59751  0.45925  1.0000
  Li  Li2       1.0  0.62545  0.40249  0.54075  1.0000
  Li  Li3       1.0  0.16385  0.29078  0.29158  1.0000
  Li  Li4       1.0  0.83615  0.70922  0.70842  1.0000
  Li  Li5       1.0  0.34233  0.97922  0.88798  1.0000
  Li  Li6       1.0  0.65767  0.02077  0.11201  1.0000
  Pu  Pu1       1.0  0.50752  0.74751  0.25248  1.0000
  Pu  Pu2       1.0  0.49249  0.25249  0.74753  1.0000
  H   H1        1.0  0.37108  0.75712  0.66987  1.0000
  H   H2        1.0  0.62892  0.24288  0.33013  1.0000
  H   H3        1.0  0.44840  0.87824  0.61630  1.0000
  H   H4        1.0  0.55161  0.12176  0.38370  1.0000
  H   H5        1.0  0.19148  0.68278  0.78165  1.0000
  H   H6        1.0  0.80852  0.31722  0.21835  1.0000
  H   H7        1.0  0.38429  0.70502  0.82240  1.0000
  H   H8        1.0  0.61571  0.29498  0.17760  1.0000
  H   H9        1.0  0.37402  0.37202  0.16708  1.0000
  H   H10       1.0  0.62598  0.62798  0.83292  1.0000
  H   H11       1.0  0.30557  0.18452  0.12535  1.0000
  H   H12       1.0  0.69443  0.81548  0.87465  1.0000
  H   H13       1.0  0.04658  0.69585  0.52756  1.0000
  H   H14       1.0  0.95340  0.30414  0.47245  1.0000
  H   H15       1.0  0.28326  0.87257  0.48130  1.0000
  H   H16       1.0  0.71673  0.12742  0.51871  1.0000
  H   H17       1.0  0.21423  0.01142  0.35781  1.0000
  H   H18       1.0  0.78577  0.98858  0.64219  1.0000
  H   H19       1.0  0.79902  0.48482  0.13344  1.0000
  H   H20       1.0  0.20099  0.51518  0.86656  1.0000
  H   H21       1.0  0.73479  0.63000  0.01577  1.0000
  H   H22       1.0  0.26521  0.37001  0.98424  1.0000
  H   H23       1.0  0.97697  0.83311  0.99252  1.0000
  H   H24       1.0  0.02303  0.16690  0.00749  1.0000
  C   C1        1.0  0.71438  0.65184  0.45765  1.0000
  C   C2        1.0  0.28561  0.34815  0.54235  1.0000
  C   C3        1.0  0.86107  0.73854  0.42493  1.0000
  C   C4        1.0  0.13892  0.26145  0.57507  1.0000
  C   C5        1.0  0.02419  0.75624  0.47163  1.0000
  C   C6        1.0  0.97580  0.24375  0.52837  1.0000
  C   C7        1.0  0.15431  0.85368  0.44647  1.0000
  C   C8        1.0  0.84569  0.14632  0.55354  1.0000
  C   C9        1.0  0.11666  0.93116  0.37741  1.0000
  C   C10       1.0  0.88334  0.06884  0.62260  1.0000
  C   C11       1.0  0.95009  0.90266  0.33126  1.0000
  C   C12       1.0  0.04990  0.09734  0.66874  1.0000
  C   C13       1.0  0.90038  0.97967  0.25446  1.0000
  C   C14       1.0  0.09961  0.02032  0.74554  1.0000
  C   C15       1.0  0.11488  0.52548  0.24936  1.0000
  C   C16       1.0  0.88512  0.47452  0.75064  1.0000
  C   C17       1.0  0.06500  0.60074  0.17122  1.0000
  C   C18       1.0  0.93501  0.39927  0.82878  1.0000
  C   C19       1.0  0.89940  0.57005  0.12042  1.0000
  C   C20       1.0  0.10060  0.42995  0.87958  1.0000
  C   C21       1.0  0.86391  0.65279  0.05475  1.0000
  C   C22       1.0  0.13609  0.34721  0.94525  1.0000
  C   C23       1.0  0.99596  0.76326  0.04164  1.0000
  C   C24       1.0  0.00404  0.23676  0.95837  1.0000
  C   C25       1.0  0.15818  0.78361  0.09278  1.0000
  C   C26       1.0  0.84182  0.21639  0.90722  1.0000
  C   C27       1.0  0.30732  0.89345  0.07752  1.0000
  C   C28       1.0  0.69269  0.10655  0.92248  1.0000
  N   N1        1.0  0.82378  0.80599  0.35276  1.0000
  N   N2        1.0  0.17622  0.19401  0.64724  1.0000
  N   N3        1.0  0.19277  0.70410  0.15629  1.0000
  N   N4        1.0  0.80724  0.29590  0.84371  1.0000
  O   O1        1.0  0.50203  0.56254  0.14453  1.0000
  O   O2        1.0  0.49797  0.43745  0.85546  1.0000
  O   O3        1.0  0.40835  0.76484  0.60099  1.0000
  O   O4        1.0  0.59166  0.23516  0.39901  1.0000
  O   O5        1.0  0.50577  0.92595  0.36343  1.0000
  O   O6        1.0  0.49423  0.07405  0.63657  1.0000
  O   O7        1.0  0.30960  0.75447  0.79885  1.0000
  O   O8        1.0  0.69040  0.24553  0.20114  1.0000
  O   O9        1.0  0.57225  0.63751  0.40408  1.0000
  O   O10       1.0  0.42774  0.36248  0.59591  1.0000
  O   O11       1.0  0.31785  0.28410  0.18747  1.0000
  O   O12       1.0  0.68215  0.71590  0.81253  1.0000
  O   O13       1.0  0.74543  0.92560  0.20413  1.0000
  O   O14       1.0  0.25456  0.07441  0.79587  1.0000
  O   O15       1.0  0.73906  0.60269  0.53699  1.0000
  O   O16       1.0  0.26093  0.39731  0.46301  1.0000
  O   O17       1.0  0.00856  0.08837  0.24332  1.0000
  O   O18       1.0  0.99145  0.91163  0.75669  1.0000
  O   O19       1.0  0.26704  0.58429  0.30554  1.0000
  O   O20       1.0  0.73296  0.41572  0.69446  1.0000
  O   O21       1.0  0.44614  0.87936  0.10940  1.0000
  O   O22       1.0  0.55386  0.12063  0.89059  1.0000
  O   O23       1.0  0.01074  0.40941  0.25712  1.0000
  O   O24       1.0  0.98926  0.59058  0.74288  1.0000
  O   O25       1.0  0.28781  0.98931  0.03295  1.0000
  O   O26       1.0  0.71219  0.01070  0.96705  1.0000
