data_image0
_chemical_formula_structural       Nd2MnH20C32N4O28
_chemical_formula_sum              "Nd2 Mn1 H20 C32 N4 O28"
_cell_length_a       9.83968
_cell_length_b       11.1965
_cell_length_c       11.6666
_cell_angle_alpha    59.9954
_cell_angle_beta     70.724
_cell_angle_gamma    82.5522

_space_group_name_H-M_alt    "P 1"
_space_group_IT_number       1

loop_
  _space_group_symop_operation_xyz
  'x, y, z'

loop_
  _atom_site_type_symbol
  _atom_site_label
  _atom_site_symmetry_multiplicity
  _atom_site_fract_x
  _atom_site_fract_y
  _atom_site_fract_z
  _atom_site_occupancy
  Nd  Nd1       1.0  0.89274  0.72812  0.86676  1.0000
  Nd  Nd2       1.0  0.10727  0.27188  0.13324  1.0000
  Mn  Mn1       1.0  0.00000  0.99999  0.50000  1.0000
  H   H1        1.0  0.74186  0.44318  0.09772  1.0000
  H   H2        1.0  0.25813  0.55683  0.90228  1.0000
  H   H3        1.0  0.61653  0.87837  0.93621  1.0000
  H   H4        1.0  0.38347  0.12163  0.06379  1.0000
  H   H5        1.0  0.64083  0.56116  0.11014  1.0000
  H   H6        1.0  0.35917  0.43885  0.88986  1.0000
  H   H7        1.0  0.69207  0.85589  0.04363  1.0000
  H   H8        1.0  0.30794  0.14411  0.95637  1.0000
  H   H9        1.0  0.30323  0.88770  0.40455  1.0000
  H   H10       1.0  0.69677  0.11230  0.59545  1.0000
  H   H11       1.0  0.16204  0.76333  0.44561  1.0000
  H   H12       1.0  0.83796  0.23667  0.55439  1.0000
  H   H13       1.0  0.14811  0.44332  0.34775  1.0000
  H   H14       1.0  0.85190  0.55668  0.65225  1.0000
  H   H15       1.0  0.99102  0.84395  0.11817  1.0000
  H   H16       1.0  0.00899  0.15605  0.88182  1.0000
  H   H17       1.0  0.44502  0.75089  0.76372  1.0000
  H   H18       1.0  0.55499  0.24912  0.23628  1.0000
  H   H19       1.0  0.75530  0.89196  0.35718  1.0000
  H   H20       1.0  0.24470  0.10804  0.64282  1.0000
  C   C1        1.0  0.61148  0.82472  0.56625  1.0000
  C   C2        1.0  0.38852  0.17528  0.43375  1.0000
  C   C3        1.0  0.46844  0.79116  0.65230  1.0000
  C   C4        1.0  0.53156  0.20884  0.34770  1.0000
  C   C5        1.0  0.35615  0.81196  0.59594  1.0000
  C   C6        1.0  0.64385  0.18805  0.40406  1.0000
  C   C7        1.0  0.38755  0.86422  0.45302  1.0000
  C   C8        1.0  0.61245  0.13579  0.54698  1.0000
  C   C9        1.0  0.53153  0.88655  0.37132  1.0000
  C   C10       1.0  0.46847  0.11345  0.62868  1.0000
  C   C11       1.0  0.64423  0.87041  0.42431  1.0000
  C   C12       1.0  0.35577  0.12959  0.57569  1.0000
  C   C13       1.0  0.73158  0.81380  0.62335  1.0000
  C   C14       1.0  0.26843  0.18619  0.37666  1.0000
  C   C15       1.0  0.20347  0.77866  0.68766  1.0000
  C   C16       1.0  0.79653  0.22134  0.31233  1.0000
  C   C17       1.0  0.06079  0.63707  0.22821  1.0000
  C   C18       1.0  0.93922  0.36293  0.77179  1.0000
  C   C19       1.0  0.03925  0.77458  0.19924  1.0000
  C   C20       1.0  0.96075  0.22543  0.80076  1.0000
  C   C21       1.0  0.07996  0.82233  0.27418  1.0000
  C   C22       1.0  0.92005  0.17767  0.72582  1.0000
  C   C23       1.0  0.13918  0.73182  0.37961  1.0000
  C   C24       1.0  0.86081  0.26818  0.62040  1.0000
  C   C25       1.0  0.16608  0.59841  0.40179  1.0000
  C   C26       1.0  0.83392  0.40158  0.59821  1.0000
  C   C27       1.0  0.12837  0.54891  0.32752  1.0000
  C   C28       1.0  0.87163  0.45109  0.67248  1.0000
  C   C29       1.0  0.01088  0.58209  0.15385  1.0000
  C   C30       1.0  0.98911  0.41791  0.84615  1.0000
  C   C31       1.0  0.06615  0.96952  0.24133  1.0000
  C   C32       1.0  0.93384  0.03048  0.75867  1.0000
  N   N1        1.0  0.56462  0.92424  0.22589  1.0000
  N   N2        1.0  0.43538  0.07576  0.77411  1.0000
  N   N3        1.0  0.23569  0.50750  0.50809  1.0000
  N   N4        1.0  0.76430  0.49250  0.49191  1.0000
  O   O1        1.0  0.85609  0.85956  0.53328  1.0000
  O   O2        1.0  0.14391  0.14043  0.46672  1.0000
  O   O3        1.0  0.70424  0.76238  0.75336  1.0000
  O   O4        1.0  0.29576  0.23761  0.24664  1.0000
  O   O5        1.0  0.17447  0.70790  0.81894  1.0000
  O   O6        1.0  0.82553  0.29211  0.18106  1.0000
  O   O7        1.0  0.10145  0.82179  0.63184  1.0000
  O   O8        1.0  0.89855  0.17821  0.36816  1.0000
  O   O9        1.0  0.46344  0.95286  0.17558  1.0000
  O   O10       1.0  0.53657  0.04715  0.82441  1.0000
  O   O11       1.0  0.69252  0.92145  0.15926  1.0000
  O   O12       1.0  0.30749  0.07856  0.84074  1.0000
  O   O13       1.0  0.05101  0.46379  0.17000  1.0000
  O   O14       1.0  0.94898  0.53622  0.82999  1.0000
  O   O15       1.0  0.93094  0.65713  0.08095  1.0000
  O   O16       1.0  0.06906  0.34287  0.91905  1.0000
  O   O17       1.0  0.01187  0.05587  0.14901  1.0000
  O   O18       1.0  0.98813  0.94413  0.85099  1.0000
  O   O19       1.0  0.11919  0.00811  0.30729  1.0000
  O   O20       1.0  0.88081  0.99189  0.69270  1.0000
  O   O21       1.0  0.26949  0.55493  0.57155  1.0000
  O   O22       1.0  0.73050  0.44506  0.42846  1.0000
  O   O23       1.0  0.25727  0.38790  0.52818  1.0000
  O   O24       1.0  0.74272  0.61209  0.47182  1.0000
  O   O25       1.0  0.70480  0.53478  0.04348  1.0000
  O   O26       1.0  0.29520  0.46523  0.95653  1.0000
  O   O27       1.0  0.67616  0.81388  0.99186  1.0000
  O   O28       1.0  0.32384  0.18612  0.00814  1.0000
