data_image0
_chemical_formula_structural       Zn2H24C32N20O8
_chemical_formula_sum              "Zn2 H24 C32 N20 O8"
_cell_length_a       8.71577
_cell_length_b       8.7096
_cell_length_c       13.6047
_cell_angle_alpha    104.758
_cell_angle_beta     97.8082
_cell_angle_gamma    91.248

_space_group_name_H-M_alt    "P 1"
_space_group_IT_number       1

loop_
  _space_group_symop_operation_xyz
  'x, y, z'

loop_
  _atom_site_type_symbol
  _atom_site_label
  _atom_site_symmetry_multiplicity
  _atom_site_fract_x
  _atom_site_fract_y
  _atom_site_fract_z
  _atom_site_occupancy
  Zn  Zn1       1.0  0.82157  0.20977  0.74591  1.0000
  Zn  Zn2       1.0  0.17843  0.79023  0.25409  1.0000
  H   H1        1.0  0.47118  0.46290  0.87288  1.0000
  H   H2        1.0  0.52882  0.53710  0.12712  1.0000
  H   H3        1.0  0.04080  0.57261  0.63658  1.0000
  H   H4        1.0  0.95920  0.42739  0.36342  1.0000
  H   H5        1.0  0.28783  0.44634  0.67194  1.0000
  H   H6        1.0  0.71217  0.55366  0.32806  1.0000
  H   H7        1.0  0.52287  0.79666  0.55999  1.0000
  H   H8        1.0  0.47713  0.20334  0.44001  1.0000
  H   H9        1.0  0.26095  0.90421  0.52111  1.0000
  H   H10       1.0  0.73905  0.09580  0.47889  1.0000
  H   H11       1.0  0.10581  0.73094  0.97399  1.0000
  H   H12       1.0  0.89419  0.26906  0.02601  1.0000
  H   H13       1.0  0.60202  0.69999  0.83764  1.0000
  H   H14       1.0  0.39798  0.30001  0.16236  1.0000
  H   H15       1.0  0.15439  0.49374  0.01270  1.0000
  H   H16       1.0  0.84561  0.50626  0.98730  1.0000
  H   H17       1.0  0.29654  0.36757  0.95451  1.0000
  H   H18       1.0  0.70346  0.63243  0.04549  1.0000
  H   H19       1.0  0.90293  0.72242  0.54228  1.0000
  H   H20       1.0  0.09707  0.27758  0.45772  1.0000
  H   H21       1.0  0.00074  0.85974  0.49053  1.0000
  H   H22       1.0  0.99926  0.14026  0.50948  1.0000
  H   H23       1.0  0.21082  0.96999  0.92621  1.0000
  H   H24       1.0  0.78918  0.03001  0.07379  1.0000
  C   C1        1.0  0.42186  0.57973  0.88642  1.0000
  C   C2        1.0  0.57815  0.42027  0.11358  1.0000
  C   C3        1.0  0.41626  0.85319  0.87861  1.0000
  C   C4        1.0  0.58374  0.14681  0.12139  1.0000
  C   C5        1.0  0.15045  0.61627  0.61993  1.0000
  C   C6        1.0  0.84955  0.38373  0.38007  1.0000
  C   C7        1.0  0.96934  0.94512  0.65255  1.0000
  C   C8        1.0  0.03065  0.05488  0.34745  1.0000
  C   C9        1.0  0.57135  0.53803  0.63679  1.0000
  C   C10       1.0  0.42865  0.46197  0.36321  1.0000
  C   C11       1.0  0.48760  0.98888  0.85529  1.0000
  C   C12       1.0  0.51240  0.01112  0.14471  1.0000
  C   C13       1.0  0.09009  0.36970  0.85001  1.0000
  C   C14       1.0  0.90991  0.63030  0.14999  1.0000
  C   C15       1.0  0.28861  0.54767  0.63890  1.0000
  C   C16       1.0  0.71139  0.45233  0.36110  1.0000
  C   C17       1.0  0.41844  0.74357  0.57652  1.0000
  C   C18       1.0  0.58156  0.25643  0.42349  1.0000
  C   C19       1.0  0.42602  0.61029  0.61707  1.0000
  C   C20       1.0  0.57398  0.38971  0.38293  1.0000
  C   C21       1.0  0.27683  0.80554  0.55648  1.0000
  C   C22       1.0  0.72317  0.19446  0.44352  1.0000
  C   C23       1.0  0.21222  0.73106  0.94028  1.0000
  C   C24       1.0  0.78778  0.26894  0.05972  1.0000
  C   C25       1.0  0.49049  0.70964  0.86539  1.0000
  C   C26       1.0  0.50951  0.29036  0.13461  1.0000
  C   C27       1.0  0.20945  0.45342  0.94354  1.0000
  C   C28       1.0  0.79055  0.54658  0.05646  1.0000
  C   C29       1.0  0.99842  0.81380  0.55818  1.0000
  C   C30       1.0  0.00158  0.18620  0.44182  1.0000
  C   C31       1.0  0.27356  0.86194  0.91660  1.0000
  C   C32       1.0  0.72644  0.13806  0.08340  1.0000
  N   N1        1.0  0.61310  0.98118  0.80641  1.0000
  N   N2        1.0  0.38690  0.01882  0.19359  1.0000
  N   N3        1.0  0.71111  0.58597  0.61771  1.0000
  N   N4        1.0  0.28889  0.41403  0.38229  1.0000
  N   N5        1.0  0.58342  0.41340  0.67866  1.0000
  N   N6        1.0  0.41658  0.58660  0.32134  1.0000
  N   N7        1.0  0.73334  0.38638  0.68524  1.0000
  N   N8        1.0  0.26666  0.61362  0.31476  1.0000
  N   N9        1.0  0.14574  0.74117  0.57742  1.0000
  N   N10       1.0  0.85426  0.25883  0.42258  1.0000
  N   N11       1.0  0.44159  0.13986  0.88306  1.0000
  N   N12       1.0  0.55841  0.86015  0.11694  1.0000
  N   N13       1.0  0.64251  0.13062  0.80479  1.0000
  N   N14       1.0  0.35749  0.86939  0.19521  1.0000
  N   N15       1.0  0.81129  0.48967  0.64829  1.0000
  N   N16       1.0  0.18871  0.51033  0.35171  1.0000
  N   N17       1.0  0.54059  0.22710  0.85148  1.0000
  N   N18       1.0  0.45941  0.77290  0.14853  1.0000
  N   N19       1.0  0.28583  0.59273  0.92460  1.0000
  N   N20       1.0  0.71417  0.40727  0.07540  1.0000
  O   O1        1.0  0.96705  0.31035  0.87398  1.0000
  O   O2        1.0  0.03295  0.68965  0.12602  1.0000
  O   O3        1.0  0.86635  0.04037  0.62810  1.0000
  O   O4        1.0  0.13365  0.95963  0.37190  1.0000
  O   O5        1.0  0.03754  0.95030  0.73911  1.0000
  O   O6        1.0  0.96245  0.04969  0.26089  1.0000
  O   O7        1.0  0.11703  0.36281  0.76189  1.0000
  O   O8        1.0  0.88298  0.63719  0.23811  1.0000
