data_image0
_chemical_formula_structural       Sr2H16C12N16O10
_chemical_formula_sum              "Sr2 H16 C12 N16 O10"
_cell_length_a       6.71096
_cell_length_b       6.7106
_cell_length_c       12.9304
_cell_angle_alpha    101.956
_cell_angle_beta     101.908
_cell_angle_gamma    101.73

_space_group_name_H-M_alt    "P 1"
_space_group_IT_number       1

loop_
  _space_group_symop_operation_xyz
  'x, y, z'

loop_
  _atom_site_type_symbol
  _atom_site_label
  _atom_site_symmetry_multiplicity
  _atom_site_fract_x
  _atom_site_fract_y
  _atom_site_fract_z
  _atom_site_occupancy
  Sr  Sr1       1.0  0.53931  0.53927  0.99999  1.0000
  Sr  Sr2       1.0  0.78910  0.28915  0.49999  1.0000
  H   H1        1.0  0.18784  0.65621  0.74280  1.0000
  H   H2        1.0  0.91340  0.44525  0.25727  1.0000
  H   H3        1.0  0.69512  0.66333  0.75705  1.0000
  H   H4        1.0  0.90611  0.93797  0.24284  1.0000
  H   H5        1.0  0.38340  0.99628  0.03471  1.0000
  H   H6        1.0  0.96169  0.34853  0.96536  1.0000
  H   H7        1.0  0.59819  0.71148  0.46516  1.0000
  H   H8        1.0  0.24625  0.13307  0.53475  1.0000
  H   H9        1.0  0.20502  0.76314  0.95862  1.0000
  H   H10       1.0  0.80455  0.24639  0.04145  1.0000
  H   H11       1.0  0.49623  0.55429  0.54126  1.0000
  H   H12       1.0  0.01302  0.95475  0.45869  1.0000
  H   H13       1.0  0.87855  0.91950  0.93774  1.0000
  H   H14       1.0  0.98168  0.94070  0.06215  1.0000
  H   H15       1.0  0.19039  0.73138  0.56228  1.0000
  H   H16       1.0  0.16929  0.62805  0.43791  1.0000
  C   C1        1.0  0.35575  0.93913  0.87452  1.0000
  C   C2        1.0  0.06471  0.48115  0.12555  1.0000
  C   C3        1.0  0.73081  0.81472  0.62536  1.0000
  C   C4        1.0  0.18915  0.10529  0.37455  1.0000
  C   C5        1.0  0.43299  0.11802  0.76423  1.0000
  C   C6        1.0  0.35391  0.66857  0.23585  1.0000
  C   C7        1.0  0.91850  0.10383  0.73572  1.0000
  C   C8        1.0  0.36794  0.18274  0.26424  1.0000
  C   C9        1.0  0.51918  0.30443  0.72661  1.0000
  C   C10       1.0  0.57784  0.79259  0.27337  1.0000
  C   C11       1.0  0.04230  0.32788  0.77337  1.0000
  C   C12       1.0  0.55436  0.26908  0.22665  1.0000
  N   N1        1.0  0.45465  0.13261  0.87328  1.0000
  N   N2        1.0  0.25944  0.58121  0.12681  1.0000
  N   N3        1.0  0.83093  0.00948  0.62667  1.0000
  N   N4        1.0  0.38259  0.20419  0.37328  1.0000
  N   N5        1.0  0.32671  0.92796  0.69905  1.0000
  N   N6        1.0  0.22901  0.62763  0.30104  1.0000
  N   N7        1.0  0.87761  0.97886  0.80084  1.0000
  N   N8        1.0  0.17789  0.07670  0.19909  1.0000
  N   N9        1.0  0.28026  0.81537  0.77083  1.0000
  N   N10       1.0  0.04462  0.50943  0.22925  1.0000
  N   N11       1.0  0.75926  0.79452  0.72902  1.0000
  N   N12       1.0  0.06535  0.03005  0.27088  1.0000
  N   N13       1.0  0.34196  0.87114  0.96625  1.0000
  N   N14       1.0  0.90501  0.37562  0.03382  1.0000
  N   N15       1.0  0.62530  0.65495  0.53362  1.0000
  N   N16       1.0  0.12117  0.09155  0.46631  1.0000
  O   O1        1.0  0.59414  0.47680  0.80238  1.0000
  O   O2        1.0  0.67427  0.79174  0.19752  1.0000
  O   O3        1.0  0.04111  0.42451  0.69764  1.0000
  O   O4        1.0  0.72662  0.34398  0.30243  1.0000
  O   O5        1.0  0.51498  0.28507  0.62666  1.0000
  O   O6        1.0  0.65845  0.88868  0.37327  1.0000
  O   O7        1.0  0.13857  0.40834  0.87326  1.0000
  O   O8        1.0  0.53507  0.26517  0.12673  1.0000
  O   O9        1.0  0.85934  0.85925  0.99992  1.0000
  O   O10       1.0  0.10901  0.60888  0.50010  1.0000
