data_image0
_chemical_formula_structural       Hg2H28C30N4Cl4O8
_chemical_formula_sum              "Hg2 H28 C30 N4 Cl4 O8"
_cell_length_a       7.54636
_cell_length_b       9.16317
_cell_length_c       14.2257
_cell_angle_alpha    70.6215
_cell_angle_beta     78.1273
_cell_angle_gamma    66.4633

_space_group_name_H-M_alt    "P 1"
_space_group_IT_number       1

loop_
  _space_group_symop_operation_xyz
  'x, y, z'

loop_
  _atom_site_type_symbol
  _atom_site_label
  _atom_site_symmetry_multiplicity
  _atom_site_fract_x
  _atom_site_fract_y
  _atom_site_fract_z
  _atom_site_occupancy
  Hg  Hg1       1.0  0.48204  0.83401  0.72966  1.0000
  Hg  Hg2       1.0  0.51796  0.16599  0.27034  1.0000
  H   H1        1.0  0.85303  0.02344  0.43170  1.0000
  H   H2        1.0  0.14696  0.97656  0.56831  1.0000
  H   H3        1.0  0.11155  0.02212  0.28803  1.0000
  H   H4        1.0  0.88844  0.97788  0.71197  1.0000
  H   H5        1.0  0.39948  0.51462  0.39670  1.0000
  H   H6        1.0  0.60052  0.48538  0.60330  1.0000
  H   H7        1.0  0.15845  0.49989  0.55030  1.0000
  H   H8        1.0  0.84155  0.50011  0.44970  1.0000
  H   H9        1.0  0.52191  0.65881  0.26358  1.0000
  H   H10       1.0  0.47809  0.34119  0.73643  1.0000
  H   H11       1.0  0.44088  0.87847  0.23535  1.0000
  H   H12       1.0  0.55912  0.12153  0.76465  1.0000
  H   H13       1.0  0.15426  0.89022  0.15596  1.0000
  H   H14       1.0  0.84574  0.10978  0.84404  1.0000
  H   H15       1.0  0.38660  0.83665  0.08961  1.0000
  H   H16       1.0  0.61340  0.16335  0.91039  1.0000
  H   H17       1.0  0.41954  0.55086  0.12908  1.0000
  H   H18       1.0  0.58046  0.44914  0.87092  1.0000
  H   H19       1.0  0.24437  0.56318  0.23359  1.0000
  H   H20       1.0  0.75563  0.43681  0.76641  1.0000
  H   H21       1.0  0.27591  0.77410  0.96890  1.0000
  H   H22       1.0  0.72409  0.22590  0.03110  1.0000
  H   H23       1.0  0.02963  0.82752  0.85661  1.0000
  H   H24       1.0  0.97037  0.17248  0.14339  1.0000
  H   H25       1.0  0.72753  0.58350  0.11163  1.0000
  H   H26       1.0  0.27247  0.41650  0.88837  1.0000
  H   H27       1.0  0.98578  0.54075  0.21619  1.0000
  H   H28       1.0  0.01422  0.45925  0.78381  1.0000
  C   C1        1.0  0.83371  0.75346  0.58868  1.0000
  C   C2        1.0  0.16628  0.24654  0.41132  1.0000
  C   C3        1.0  0.98741  0.76051  0.50174  1.0000
  C   C4        1.0  0.01258  0.23949  0.49826  1.0000
  C   C5        1.0  0.97294  0.90892  0.42767  1.0000
  C   C6        1.0  0.02705  0.09108  0.57234  1.0000
  C   C7        1.0  0.11139  0.91043  0.34727  1.0000
  C   C8        1.0  0.88861  0.08958  0.65273  1.0000
  C   C9        1.0  0.27752  0.62254  0.41045  1.0000
  C   C10       1.0  0.72247  0.37746  0.58955  1.0000
  C   C11       1.0  0.14425  0.61650  0.49305  1.0000
  C   C12       1.0  0.85574  0.38350  0.50695  1.0000
  C   C13       1.0  0.39507  0.77372  0.24787  1.0000
  C   C14       1.0  0.60493  0.22628  0.75213  1.0000
  C   C15       1.0  0.29957  0.79362  0.15727  1.0000
  C   C16       1.0  0.70043  0.20638  0.84273  1.0000
  C   C17       1.0  0.28307  0.63198  0.15842  1.0000
  C   C18       1.0  0.71693  0.36802  0.84158  1.0000
  C   C19       1.0  0.14757  0.74083  0.99691  1.0000
  C   C20       1.0  0.85244  0.25917  0.00309  1.0000
  C   C21       1.0  0.01011  0.76870  0.93600  1.0000
  C   C22       1.0  0.98989  0.23131  0.06400  1.0000
  C   C23       1.0  0.85401  0.71495  0.97630  1.0000
  C   C24       1.0  0.14599  0.28505  0.02370  1.0000
  C   C25       1.0  0.84266  0.63261  0.07811  1.0000
  C   C26       1.0  0.15734  0.36739  0.92189  1.0000
  C   C27       1.0  0.98311  0.60758  0.13693  1.0000
  C   C28       1.0  0.01690  0.39242  0.86307  1.0000
  C   C29       1.0  0.70566  0.73800  0.91004  1.0000
  C   C30       1.0  0.29434  0.26200  0.08996  1.0000
  N   N1        1.0  0.25860  0.76835  0.33921  1.0000
  N   N2        1.0  0.74139  0.23165  0.66079  1.0000
  N   N3        1.0  0.13188  0.66178  0.09551  1.0000
  N   N4        1.0  0.86812  0.33822  0.90449  1.0000
  Cl  Cl1       1.0  0.31059  0.66832  0.70537  1.0000
  Cl  Cl2       1.0  0.68940  0.33168  0.29464  1.0000
  Cl  Cl3       1.0  0.22512  0.07754  0.78222  1.0000
  Cl  Cl4       1.0  0.77488  0.92246  0.21778  1.0000
  O   O1        1.0  0.69788  0.89255  0.59047  1.0000
  O   O2        1.0  0.30212  0.10745  0.40953  1.0000
  O   O3        1.0  0.84909  0.61456  0.64975  1.0000
  O   O4        1.0  0.15091  0.38544  0.35025  1.0000
  O   O5        1.0  0.72630  0.82056  0.81867  1.0000
  O   O6        1.0  0.27370  0.17944  0.18133  1.0000
  O   O7        1.0  0.57929  0.67361  0.94791  1.0000
  O   O8        1.0  0.42072  0.32638  0.05209  1.0000
