data_image0
_chemical_formula_structural       Ba2H16C12N16O10
_chemical_formula_sum              "Ba2 H16 C12 N16 O10"
_cell_length_a       6.88459
_cell_length_b       6.88465
_cell_length_c       13.2381
_cell_angle_alpha    101.441
_cell_angle_beta     101.457
_cell_angle_gamma    103.717

_space_group_name_H-M_alt    "P 1"
_space_group_IT_number       1

loop_
  _space_group_symop_operation_xyz
  'x, y, z'

loop_
  _atom_site_type_symbol
  _atom_site_label
  _atom_site_symmetry_multiplicity
  _atom_site_fract_x
  _atom_site_fract_y
  _atom_site_fract_z
  _atom_site_occupancy
  Ba  Ba1       1.0  0.84036  0.84033  0.00002  1.0000
  Ba  Ba2       1.0  0.09038  0.59034  0.50000  1.0000
  H   H1        1.0  0.67276  0.29337  0.02788  1.0000
  H   H2        1.0  0.26541  0.64463  0.97202  1.0000
  H   H3        1.0  0.89487  0.01564  0.47215  1.0000
  H   H4        1.0  0.54368  0.42286  0.52791  1.0000
  H   H5        1.0  0.49543  0.06154  0.95433  1.0000
  H   H6        1.0  0.10713  0.54079  0.04551  1.0000
  H   H7        1.0  0.79128  0.85738  0.54572  1.0000
  H   H8        1.0  0.31193  0.24547  0.45438  1.0000
  H   H9        1.0  0.29077  0.25277  0.06194  1.0000
  H   H10       1.0  0.19096  0.22894  0.93830  1.0000
  H   H11       1.0  0.47876  0.94089  0.43807  1.0000
  H   H12       1.0  0.50272  0.04062  0.56173  1.0000
  H   H13       1.0  0.48473  0.95065  0.74523  1.0000
  H   H14       1.0  0.20519  0.73935  0.25464  1.0000
  H   H15       1.0  0.98967  0.95557  0.75479  1.0000
  H   H16       1.0  0.20064  0.23478  0.24530  1.0000
  C   C1        1.0  0.64667  0.23405  0.87078  1.0000
  C   C2        1.0  0.36313  0.77563  0.12912  1.0000
  C   C3        1.0  0.02599  0.11349  0.62927  1.0000
  C   C4        1.0  0.48422  0.39673  0.37079  1.0000
  C   C5        1.0  0.72617  0.40728  0.76137  1.0000
  C   C6        1.0  0.64575  0.96463  0.23862  1.0000
  C   C7        1.0  0.21469  0.39622  0.73876  1.0000
  C   C8        1.0  0.65729  0.47592  0.26128  1.0000
  C   C9        1.0  0.81164  0.58959  0.72208  1.0000
  C   C10       1.0  0.86736  0.08943  0.27794  1.0000
  C   C11       1.0  0.33946  0.61781  0.77806  1.0000
  C   C12       1.0  0.83959  0.56136  0.22199  1.0000
  N   N1        1.0  0.62014  0.21890  0.69912  1.0000
  N   N2        1.0  0.51956  0.92086  0.30081  1.0000
  N   N3        1.0  0.17093  0.27001  0.80098  1.0000
  N   N4        1.0  0.46884  0.36990  0.19909  1.0000
  N   N5        1.0  0.74714  0.42380  0.86791  1.0000
  N   N6        1.0  0.55580  0.87903  0.13207  1.0000
  N   N7        1.0  0.12925  0.30618  0.63221  1.0000
  N   N8        1.0  0.67394  0.49707  0.36784  1.0000
  N   N9        1.0  0.63029  0.17038  0.96119  1.0000
  N   N10       1.0  0.20910  0.66884  0.03869  1.0000
  N   N11       1.0  0.91924  0.95939  0.53885  1.0000
  N   N12       1.0  0.42064  0.38042  0.46123  1.0000
  N   N13       1.0  0.57177  0.10969  0.77030  1.0000
  N   N14       1.0  0.33918  0.80127  0.22958  1.0000
  N   N15       1.0  0.05154  0.08957  0.72975  1.0000
  N   N16       1.0  0.35971  0.32173  0.27033  1.0000
  O   O1        1.0  0.79873  0.56809  0.62347  1.0000
  O   O2        1.0  0.94447  0.17514  0.37656  1.0000
  O   O3        1.0  0.42525  0.69497  0.87666  1.0000
  O   O4        1.0  0.81808  0.54835  0.12336  1.0000
  O   O5        1.0  0.89464  0.75977  0.79447  1.0000
  O   O6        1.0  0.96511  0.10012  0.20557  1.0000
  O   O7        1.0  0.34998  0.71547  0.70563  1.0000
  O   O8        1.0  0.00971  0.64446  0.29440  1.0000
  O   O9        1.0  0.17192  0.17194  0.00011  1.0000
  O   O10       1.0  0.42175  0.92190  0.49989  1.0000
