data_image0
_chemical_formula_structural       Cu4H44W2C28S8N8
_chemical_formula_sum              "Cu4 H44 W2 C28 S8 N8"
_cell_length_a       9.10304
_cell_length_b       9.14504
_cell_length_c       13.5739
_cell_angle_alpha    86.2707
_cell_angle_beta     82.1441
_cell_angle_gamma    65.772

_space_group_name_H-M_alt    "P 1"
_space_group_IT_number       1

loop_
  _space_group_symop_operation_xyz
  'x, y, z'

loop_
  _atom_site_type_symbol
  _atom_site_label
  _atom_site_symmetry_multiplicity
  _atom_site_fract_x
  _atom_site_fract_y
  _atom_site_fract_z
  _atom_site_occupancy
  Cu  Cu1       1.0  0.55199  0.77981  0.64762  1.0000
  Cu  Cu2       1.0  0.44801  0.22019  0.35238  1.0000
  Cu  Cu3       1.0  0.25953  0.44705  0.85502  1.0000
  Cu  Cu4       1.0  0.74047  0.55294  0.14498  1.0000
  H   H1        1.0  0.41613  0.11532  0.69688  1.0000
  H   H2        1.0  0.58386  0.88468  0.30312  1.0000
  H   H3        1.0  0.45226  0.28634  0.64966  1.0000
  H   H4        1.0  0.54773  0.71366  0.35034  1.0000
  H   H5        1.0  0.57456  0.15563  0.73516  1.0000
  H   H6        1.0  0.42544  0.84437  0.26484  1.0000
  H   H7        1.0  0.72208  0.22885  0.50394  1.0000
  H   H8        1.0  0.27791  0.77115  0.49606  1.0000
  H   H9        1.0  0.05012  0.85257  0.37877  1.0000
  H   H10       1.0  0.94987  0.14743  0.62124  1.0000
  H   H11       1.0  0.95798  0.06223  0.35403  1.0000
  H   H12       1.0  0.04202  0.93777  0.64597  1.0000
  H   H13       1.0  0.89320  0.93228  0.29933  1.0000
  H   H14       1.0  0.10680  0.06772  0.70067  1.0000
  H   H15       1.0  0.87214  0.69363  0.37835  1.0000
  H   H16       1.0  0.12785  0.30637  0.62164  1.0000
  H   H17       1.0  0.73158  0.65343  0.46674  1.0000
  H   H18       1.0  0.26842  0.34657  0.53326  1.0000
  H   H19       1.0  0.92040  0.59531  0.59632  1.0000
  H   H20       1.0  0.07960  0.40469  0.40367  1.0000
  H   H21       1.0  0.06470  0.62935  0.50759  1.0000
  H   H22       1.0  0.93530  0.37065  0.49241  1.0000
  H   H23       1.0  0.94668  0.50920  0.80227  1.0000
  H   H24       1.0  0.05333  0.49079  0.19773  1.0000
  H   H25       1.0  0.78423  0.45218  0.85047  1.0000
  H   H26       1.0  0.21577  0.54782  0.14952  1.0000
  H   H27       1.0  0.94508  0.32642  0.76680  1.0000
  H   H28       1.0  0.05493  0.67357  0.23319  1.0000
  H   H29       1.0  0.85268  0.20955  0.00016  1.0000
  H   H30       1.0  0.14732  0.79046  0.99985  1.0000
  H   H31       1.0  0.99185  0.05505  0.16179  1.0000
  H   H32       1.0  0.00815  0.94495  0.83822  1.0000
  H   H33       1.0  0.12278  0.12998  0.20447  1.0000
  H   H34       1.0  0.87722  0.87002  0.79553  1.0000
  H   H35       1.0  0.20518  0.95555  0.12944  1.0000
  H   H36       1.0  0.79482  0.04445  0.87057  1.0000
  H   H37       1.0  0.33660  0.18072  0.12774  1.0000
  H   H38       1.0  0.66341  0.81928  0.87226  1.0000
  H   H39       1.0  0.35844  0.32785  0.04341  1.0000
  H   H40       1.0  0.64156  0.67214  0.95659  1.0000
  H   H41       1.0  0.60254  0.09202  0.01740  1.0000
  H   H42       1.0  0.39747  0.90798  0.98260  1.0000
  H   H43       1.0  0.49911  0.11633  0.91226  1.0000
  H   H44       1.0  0.50090  0.88367  0.08774  1.0000
  W   W1        1.0  0.41399  0.60644  0.75133  1.0000
  W   W2        1.0  0.58601  0.39356  0.24868  1.0000
  C   C1        1.0  0.50996  0.15990  0.67144  1.0000
  C   C2        1.0  0.49004  0.84010  0.32856  1.0000
  C   C3        1.0  0.62379  0.06404  0.58743  1.0000
  C   C4        1.0  0.37621  0.93596  0.41257  1.0000
  C   C5        1.0  0.80969  0.97755  0.45402  1.0000
  C   C6        1.0  0.19031  0.02245  0.54598  1.0000
  C   C7        1.0  0.71974  0.11123  0.51332  1.0000
  C   C8        1.0  0.28026  0.88877  0.48668  1.0000
  C   C9        1.0  0.93508  0.95356  0.36708  1.0000
  C   C10       1.0  0.06492  0.04644  0.63292  1.0000
  C   C11       1.0  0.83010  0.69467  0.45813  1.0000
  C   C12       1.0  0.16990  0.30533  0.54187  1.0000
  C   C13       1.0  0.96683  0.58655  0.51669  1.0000
  C   C14       1.0  0.03316  0.41345  0.48331  1.0000
  C   C15       1.0  0.91566  0.40859  0.82925  1.0000
  C   C16       1.0  0.08435  0.59140  0.17075  1.0000
  C   C17       1.0  0.00472  0.32491  0.91444  1.0000
  C   C18       1.0  0.99529  0.67509  0.08555  1.0000
  C   C19       1.0  0.96178  0.23202  0.98984  1.0000
  C   C20       1.0  0.03822  0.76799  0.01016  1.0000
  C   C21       1.0  0.08555  0.17684  0.05071  1.0000
  C   C22       1.0  0.91445  0.82316  0.94929  1.0000
  C   C23       1.0  0.10358  0.07349  0.14125  1.0000
  C   C24       1.0  0.89641  0.92652  0.85875  1.0000
  C   C25       1.0  0.34706  0.21268  0.04856  1.0000
  C   C26       1.0  0.65294  0.78731  0.95144  1.0000
  C   C27       1.0  0.49611  0.08468  0.99196  1.0000
  C   C28       1.0  0.50389  0.91532  0.00804  1.0000
  S   S1        1.0  0.37138  0.85807  0.78318  1.0000
  S   S2        1.0  0.62861  0.14193  0.21682  1.0000
  S   S3        1.0  0.60386  0.52423  0.62061  1.0000
  S   S4        1.0  0.39614  0.47577  0.37939  1.0000
  S   S5        1.0  0.18503  0.59572  0.71903  1.0000
  S   S6        1.0  0.81498  0.40428  0.28097  1.0000
  S   S7        1.0  0.49391  0.44963  0.88305  1.0000
  S   S8        1.0  0.50609  0.55037  0.11696  1.0000
  N   N1        1.0  0.65093  0.90939  0.57352  1.0000
  N   N2        1.0  0.34906  0.09061  0.42648  1.0000
  N   N3        1.0  0.76312  0.85949  0.49095  1.0000
  N   N4        1.0  0.23687  0.14051  0.50904  1.0000
  N   N5        1.0  0.14779  0.32811  0.92863  1.0000
  N   N6        1.0  0.85221  0.67188  0.07137  1.0000
  N   N7        1.0  0.19519  0.23739  0.01234  1.0000
  N   N8        1.0  0.80481  0.76261  0.98766  1.0000
