data_image0
_chemical_formula_structural       ZnH16C12N4O6
_chemical_formula_sum              "Zn1 H16 C12 N4 O6"
_cell_length_a       6.31096
_cell_length_b       6.98548
_cell_length_c       9.10939
_cell_angle_alpha    107.488
_cell_angle_beta     99.3059
_cell_angle_gamma    104.264

_space_group_name_H-M_alt    "P 1"
_space_group_IT_number       1

loop_
  _space_group_symop_operation_xyz
  'x, y, z'

loop_
  _atom_site_type_symbol
  _atom_site_label
  _atom_site_symmetry_multiplicity
  _atom_site_fract_x
  _atom_site_fract_y
  _atom_site_fract_z
  _atom_site_occupancy
  Zn  Zn1       1.0  0.50004  0.00007  0.50001  1.0000
  H   H1        1.0  0.02481  0.17430  0.05156  1.0000
  H   H2        1.0  0.97515  0.82553  0.94839  1.0000
  H   H3        1.0  0.94093  0.17630  0.85398  1.0000
  H   H4        1.0  0.05903  0.82358  0.14598  1.0000
  H   H5        1.0  0.10743  0.41353  0.01519  1.0000
  H   H6        1.0  0.89252  0.58635  0.98482  1.0000
  H   H7        1.0  0.14669  0.09003  0.69049  1.0000
  H   H8        1.0  0.85338  0.90996  0.30949  1.0000
  H   H9        1.0  0.44279  0.16599  0.13918  1.0000
  H   H10       1.0  0.55710  0.83388  0.86080  1.0000
  H   H11       1.0  0.49788  0.43198  0.14480  1.0000
  H   H12       1.0  0.50206  0.56791  0.85521  1.0000
  H   H13       1.0  0.62727  0.26211  0.03032  1.0000
  H   H14       1.0  0.37270  0.73779  0.96971  1.0000
  H   H15       1.0  0.86805  0.77229  0.60913  1.0000
  H   H16       1.0  0.13199  0.22785  0.39088  1.0000
  C   C1        1.0  0.07661  0.24235  0.96399  1.0000
  C   C2        1.0  0.92335  0.75754  0.03599  1.0000
  C   C3        1.0  0.30154  0.12543  0.78303  1.0000
  C   C4        1.0  0.69847  0.87451  0.21696  1.0000
  C   C5        1.0  0.47358  0.26890  0.06922  1.0000
  C   C6        1.0  0.52635  0.73098  0.93079  1.0000
  C   C7        1.0  0.87804  0.37813  0.61607  1.0000
  C   C8        1.0  0.12200  0.62207  0.38395  1.0000
  C   C9        1.0  0.70339  0.65110  0.56150  1.0000
  C   C10       1.0  0.29659  0.34900  0.43850  1.0000
  C   C11       1.0  0.67906  0.44444  0.55545  1.0000
  C   C12       1.0  0.32100  0.55571  0.44456  1.0000
  N   N1        1.0  0.28290  0.20208  0.93186  1.0000
  N   N2        1.0  0.71709  0.79782  0.06812  1.0000
  N   N3        1.0  0.47497  0.29617  0.49335  1.0000
  N   N4        1.0  0.52508  0.70395  0.50666  1.0000
  O   O1        1.0  0.48079  0.09928  0.74919  1.0000
  O   O2        1.0  0.51924  0.90069  0.25082  1.0000
  O   O3        1.0  0.06062  0.52027  0.69158  1.0000
  O   O4        1.0  0.93941  0.47994  0.30845  1.0000
  O   O5        1.0  0.83925  0.17791  0.58282  1.0000
  O   O6        1.0  0.16084  0.82227  0.41723  1.0000
