data_image0
_chemical_formula_structural       Na2H22C14S2O16
_chemical_formula_sum              "Na2 H22 C14 S2 O16"
_cell_length_a       5.4833
_cell_length_b       7.80474
_cell_length_c       12.7723
_cell_angle_alpha    88.3818
_cell_angle_beta     78.5304
_cell_angle_gamma    83.6344

_space_group_name_H-M_alt    "P 1"
_space_group_IT_number       1

loop_
  _space_group_symop_operation_xyz
  'x, y, z'

loop_
  _atom_site_type_symbol
  _atom_site_label
  _atom_site_symmetry_multiplicity
  _atom_site_fract_x
  _atom_site_fract_y
  _atom_site_fract_z
  _atom_site_occupancy
  Na  Na1       1.0  0.60785  0.73927  0.83872  1.0000
  Na  Na2       1.0  0.39214  0.26073  0.16129  1.0000
  H   H1        1.0  0.72937  0.09512  0.32242  1.0000
  H   H2        1.0  0.27062  0.90488  0.67759  1.0000
  H   H3        1.0  0.76790  0.04394  0.94897  1.0000
  H   H4        1.0  0.23211  0.95606  0.05103  1.0000
  H   H5        1.0  0.85512  0.86042  0.99298  1.0000
  H   H6        1.0  0.14488  0.13958  0.00701  1.0000
  H   H7        1.0  0.50555  0.72776  0.06146  1.0000
  H   H8        1.0  0.49446  0.27224  0.93854  1.0000
  H   H9        1.0  0.26034  0.65314  0.04792  1.0000
  H   H10       1.0  0.73967  0.34686  0.95208  1.0000
  H   H11       1.0  0.12060  0.92196  0.83842  1.0000
  H   H12       1.0  0.87940  0.07804  0.16158  1.0000
  H   H13       1.0  0.29384  0.06781  0.80805  1.0000
  H   H14       1.0  0.70616  0.93219  0.19195  1.0000
  H   H15       1.0  0.75479  0.24343  0.76946  1.0000
  H   H16       1.0  0.24522  0.75657  0.23055  1.0000
  H   H17       1.0  0.67485  0.14149  0.59764  1.0000
  H   H18       1.0  0.32514  0.85851  0.40236  1.0000
  H   H19       1.0  0.33428  0.34933  0.42740  1.0000
  H   H20       1.0  0.66571  0.65068  0.57260  1.0000
  H   H21       1.0  0.41532  0.45583  0.60012  1.0000
  H   H22       1.0  0.58468  0.54418  0.39988  1.0000
  C   C1        1.0  0.09012  0.35614  0.69393  1.0000
  C   C2        1.0  0.90989  0.64386  0.30607  1.0000
  C   C3        1.0  0.88138  0.26745  0.69471  1.0000
  C   C4        1.0  0.11862  0.73255  0.30530  1.0000
  C   C5        1.0  0.83608  0.21088  0.59860  1.0000
  C   C6        1.0  0.16393  0.78912  0.40140  1.0000
  C   C7        1.0  0.99940  0.24210  0.50234  1.0000
  C   C8        1.0  0.00059  0.75790  0.49766  1.0000
  C   C9        1.0  0.20950  0.32814  0.50308  1.0000
  C   C10       1.0  0.79049  0.67186  0.49691  1.0000
  C   C11       1.0  0.25497  0.38632  0.59852  1.0000
  C   C12       1.0  0.74503  0.61369  0.40148  1.0000
  C   C13       1.0  0.95765  0.18912  0.39670  1.0000
  C   C14       1.0  0.04233  0.81088  0.60331  1.0000
  S   S1        1.0  0.15273  0.42920  0.81611  1.0000
  S   S2        1.0  0.84728  0.57080  0.18388  1.0000
  O   O1        1.0  0.91216  0.50524  0.87890  1.0000
  O   O2        1.0  0.08786  0.49475  0.12109  1.0000
  O   O3        1.0  0.24601  0.26881  0.86984  1.0000
  O   O4        1.0  0.75400  0.73119  0.13016  1.0000
  O   O5        1.0  0.34332  0.54730  0.78868  1.0000
  O   O6        1.0  0.65669  0.45269  0.21131  1.0000
  O   O7        1.0  0.11462  0.20388  0.31374  1.0000
  O   O8        1.0  0.88537  0.79613  0.68625  1.0000
  O   O9        1.0  0.74048  0.12749  0.39941  1.0000
  O   O10       1.0  0.25950  0.87251  0.60059  1.0000
  O   O11       1.0  0.83793  0.92364  0.92698  1.0000
  O   O12       1.0  0.16208  0.07636  0.07302  1.0000
  O   O13       1.0  0.36832  0.74505  0.02093  1.0000
  O   O14       1.0  0.63169  0.25495  0.97907  1.0000
  O   O15       1.0  0.28577  0.94497  0.79336  1.0000
  O   O16       1.0  0.71423  0.05503  0.20664  1.0000
