data_image0
_chemical_formula_structural       Er4H22C30O32
_chemical_formula_sum              "Er4 H22 C30 O32"
_cell_length_a       9.71494
_cell_length_b       10.9578
_cell_length_c       10.9983
_cell_angle_alpha    105.781
_cell_angle_beta     88.4564
_cell_angle_gamma    114.491

_space_group_name_H-M_alt    "P 1"
_space_group_IT_number       1

loop_
  _space_group_symop_operation_xyz
  'x, y, z'

loop_
  _atom_site_type_symbol
  _atom_site_label
  _atom_site_symmetry_multiplicity
  _atom_site_fract_x
  _atom_site_fract_y
  _atom_site_fract_z
  _atom_site_occupancy
  Er  Er1       1.0  0.97562  0.07536  0.17872  1.0000
  Er  Er2       1.0  0.02437  0.92463  0.82127  1.0000
  Er  Er3       1.0  0.00078  0.50452  0.25324  1.0000
  Er  Er4       1.0  0.99923  0.49549  0.74676  1.0000
  H   H1        1.0  0.50039  0.80190  0.82630  1.0000
  H   H2        1.0  0.49961  0.19810  0.17369  1.0000
  H   H3        1.0  0.48760  0.26296  0.90389  1.0000
  H   H4        1.0  0.51241  0.73705  0.09612  1.0000
  H   H5        1.0  0.60744  0.74453  0.64403  1.0000
  H   H6        1.0  0.39257  0.25547  0.35596  1.0000
  H   H7        1.0  0.94072  0.63626  0.07860  1.0000
  H   H8        1.0  0.05927  0.36373  0.92140  1.0000
  H   H9        1.0  0.08750  0.73973  0.17619  1.0000
  H   H10       1.0  0.91246  0.26032  0.82383  1.0000
  H   H11       1.0  0.02342  0.73481  0.48922  1.0000
  H   H12       1.0  0.97659  0.26519  0.51078  1.0000
  H   H13       1.0  0.18533  0.73756  0.47198  1.0000
  H   H14       1.0  0.81468  0.26245  0.52801  1.0000
  H   H15       1.0  0.70844  0.96880  0.31864  1.0000
  H   H16       1.0  0.29154  0.03121  0.68135  1.0000
  H   H17       1.0  0.72207  0.12312  0.33209  1.0000
  H   H18       1.0  0.27793  0.87689  0.66790  1.0000
  H   H19       1.0  0.05506  0.97208  0.37262  1.0000
  H   H20       1.0  0.94492  0.02791  0.62739  1.0000
  H   H21       1.0  0.93674  0.83819  0.27543  1.0000
  H   H22       1.0  0.06320  0.16181  0.72461  1.0000
  C   C1        1.0  0.77696  0.00178  0.89445  1.0000
  C   C2        1.0  0.22304  0.99820  0.10553  1.0000
  C   C3        1.0  0.63703  0.00514  0.95182  1.0000
  C   C4        1.0  0.36297  0.99487  0.04818  1.0000
  C   C5        1.0  0.49936  0.88895  0.90249  1.0000
  C   C6        1.0  0.50064  0.11105  0.09751  1.0000
  C   C7        1.0  0.63810  0.11791  0.05124  1.0000
  C   C8        1.0  0.36189  0.88209  0.94876  1.0000
  C   C9        1.0  0.23671  0.24855  0.00799  1.0000
  C   C10       1.0  0.76329  0.75145  0.99201  1.0000
  C   C11       1.0  0.36850  0.38149  0.00362  1.0000
  C   C12       1.0  0.63152  0.61849  0.99637  1.0000
  C   C13       1.0  0.49253  0.36710  0.94522  1.0000
  C   C14       1.0  0.50749  0.63289  0.05478  1.0000
  C   C15       1.0  0.77745  0.24931  0.11107  1.0000
  C   C16       1.0  0.22255  0.75068  0.88892  1.0000
  C   C17       1.0  0.30052  0.63593  0.58198  1.0000
  C   C18       1.0  0.69949  0.36408  0.41801  1.0000
  C   C19       1.0  0.34652  0.43181  0.45325  1.0000
  C   C20       1.0  0.65349  0.56819  0.54674  1.0000
  C   C21       1.0  0.56016  0.63820  0.58017  1.0000
  C   C22       1.0  0.43984  0.36180  0.41982  1.0000
  C   C23       1.0  0.40647  0.56951  0.53478  1.0000
  C   C24       1.0  0.59354  0.43049  0.46521  1.0000
  C   C25       1.0  0.18758  0.36847  0.39112  1.0000
  C   C26       1.0  0.81242  0.63153  0.60888  1.0000
  C   C27       1.0  0.24307  0.53907  0.11216  1.0000
  C   C28       1.0  0.75693  0.46094  0.88785  1.0000
  C   C29       1.0  0.37539  0.51626  0.05783  1.0000
  C   C30       1.0  0.62461  0.48372  0.94217  1.0000
  O   O1        1.0  0.26032  0.64335  0.20572  1.0000
  O   O2        1.0  0.73971  0.35665  0.79429  1.0000
  O   O3        1.0  0.10698  0.44730  0.06478  1.0000
  O   O4        1.0  0.89302  0.55268  0.93523  1.0000
  O   O5        1.0  0.97969  0.67823  0.17290  1.0000
  O   O6        1.0  0.02029  0.32176  0.82711  1.0000
  O   O7        1.0  0.08874  0.71520  0.42372  1.0000
  O   O8        1.0  0.91127  0.28481  0.57628  1.0000
  O   O9        1.0  0.18152  0.55929  0.62409  1.0000
  O   O10       1.0  0.81849  0.44073  0.37591  1.0000
  O   O11       1.0  0.77958  0.36524  0.10920  1.0000
  O   O12       1.0  0.22043  0.63476  0.89081  1.0000
  O   O13       1.0  0.88823  0.24741  0.17067  1.0000
  O   O14       1.0  0.11178  0.75260  0.82933  1.0000
  O   O15       1.0  0.14793  0.45139  0.35641  1.0000
  O   O16       1.0  0.85206  0.54861  0.64360  1.0000
  O   O17       1.0  0.10152  0.23875  0.37460  1.0000
  O   O18       1.0  0.89848  0.76125  0.62540  1.0000
  O   O19       1.0  0.75455  0.04862  0.28513  1.0000
  O   O20       1.0  0.24544  0.95138  0.71485  1.0000
  O   O21       1.0  0.95519  0.93381  0.32610  1.0000
  O   O22       1.0  0.04479  0.06620  0.67393  1.0000
  O   O23       1.0  0.18064  0.24051  0.11254  1.0000
  O   O24       1.0  0.81937  0.75948  0.88746  1.0000
  O   O25       1.0  0.19800  0.15096  0.90381  1.0000
  O   O26       1.0  0.80201  0.84903  0.09620  1.0000
  O   O27       1.0  0.77253  0.94738  0.77737  1.0000
  O   O28       1.0  0.22745  0.05260  0.22263  1.0000
  O   O29       1.0  0.90111  0.05014  0.96741  1.0000
  O   O30       1.0  0.09889  0.94985  0.03259  1.0000
  O   O31       1.0  0.33385  0.75975  0.57933  1.0000
  O   O32       1.0  0.66616  0.24026  0.42066  1.0000
