data_image0
_chemical_formula_structural       Cu2H30C36N6O8
_chemical_formula_sum              "Cu2 H30 C36 N6 O8"
_cell_length_a       7.19609
_cell_length_b       9.01617
_cell_length_c       13.8371
_cell_angle_alpha    109.472
_cell_angle_beta     94.0443
_cell_angle_gamma    98.0778

_space_group_name_H-M_alt    "P 1"
_space_group_IT_number       1

loop_
  _space_group_symop_operation_xyz
  'x, y, z'

loop_
  _atom_site_type_symbol
  _atom_site_label
  _atom_site_symmetry_multiplicity
  _atom_site_fract_x
  _atom_site_fract_y
  _atom_site_fract_z
  _atom_site_occupancy
  Cu  Cu1       1.0  0.50000  0.00000  0.00000  1.0000
  Cu  Cu2       1.0  0.49999  0.50000  0.50000  1.0000
  H   H1        1.0  0.32954  0.21719  0.15592  1.0000
  H   H2        1.0  0.67047  0.78282  0.84408  1.0000
  H   H3        1.0  0.32906  0.34545  0.28544  1.0000
  H   H4        1.0  0.67094  0.65455  0.71456  1.0000
  H   H5        1.0  0.24547  0.70986  0.12269  1.0000
  H   H6        1.0  0.75454  0.29013  0.87731  1.0000
  H   H7        1.0  0.97332  0.72978  0.01315  1.0000
  H   H8        1.0  0.02669  0.27022  0.98685  1.0000
  H   H9        1.0  0.99285  0.53556  0.10478  1.0000
  H   H10       1.0  0.00716  0.46444  0.89521  1.0000
  H   H11       1.0  0.72231  0.45453  0.18912  1.0000
  H   H12       1.0  0.27771  0.54546  0.81087  1.0000
  H   H13       1.0  0.42660  0.56582  0.17843  1.0000
  H   H14       1.0  0.57342  0.43417  0.82156  1.0000
  H   H15       1.0  0.22061  0.13390  0.55173  1.0000
  H   H16       1.0  0.77938  0.86610  0.44828  1.0000
  H   H17       1.0  0.98682  0.39100  0.66437  1.0000
  H   H18       1.0  0.01317  0.60900  0.33563  1.0000
  H   H19       1.0  0.99836  0.15020  0.71209  1.0000
  H   H20       1.0  0.00163  0.84980  0.28791  1.0000
  H   H21       1.0  0.70340  0.95549  0.69438  1.0000
  H   H22       1.0  0.29659  0.04451  0.30562  1.0000
  H   H23       1.0  0.39825  0.99982  0.62159  1.0000
  H   H24       1.0  0.60174  0.00018  0.37840  1.0000
  H   H25       1.0  0.89738  0.06918  0.14230  1.0000
  H   H26       1.0  0.10263  0.93083  0.85770  1.0000
  H   H27       1.0  0.07241  0.21379  0.32468  1.0000
  H   H28       1.0  0.92759  0.78621  0.67532  1.0000
  H   H29       1.0  0.88658  0.37132  0.45805  1.0000
  H   H30       1.0  0.11341  0.62869  0.54196  1.0000
  C   C1        1.0  0.35677  0.76560  0.08835  1.0000
  C   C2        1.0  0.64324  0.23440  0.91165  1.0000
  C   C3        1.0  0.53309  0.71124  0.09157  1.0000
  C   C4        1.0  0.46692  0.28876  0.90842  1.0000
  C   C5        1.0  0.68810  0.75842  0.04172  1.0000
  C   C6        1.0  0.31191  0.24158  0.95828  1.0000
  C   C7        1.0  0.85370  0.69101  0.04838  1.0000
  C   C8        1.0  0.14631  0.30899  0.95162  1.0000
  C   C9        1.0  0.86376  0.58495  0.10068  1.0000
  C   C10       1.0  0.13625  0.41504  0.89931  1.0000
  C   C11       1.0  0.71160  0.53905  0.14929  1.0000
  C   C12       1.0  0.28840  0.46095  0.85070  1.0000
  C   C13       1.0  0.54846  0.60108  0.14334  1.0000
  C   C14       1.0  0.45155  0.39891  0.85665  1.0000
  C   C15       1.0  0.33956  0.22727  0.55294  1.0000
  C   C16       1.0  0.66044  0.77273  0.44706  1.0000
  C   C17       1.0  0.51879  0.21820  0.60027  1.0000
  C   C18       1.0  0.48120  0.78179  0.39973  1.0000
  C   C19       1.0  0.68648  0.33527  0.61492  1.0000
  C   C20       1.0  0.31351  0.66473  0.38508  1.0000
  C   C21       1.0  0.85879  0.30449  0.65508  1.0000
  C   C22       1.0  0.14120  0.69551  0.34492  1.0000
  C   C23       1.0  0.86359  0.16970  0.68135  1.0000
  C   C24       1.0  0.13640  0.83030  0.31865  1.0000
  C   C25       1.0  0.69763  0.05882  0.67102  1.0000
  C   C26       1.0  0.30236  0.94118  0.32897  1.0000
  C   C27       1.0  0.52854  0.08448  0.63135  1.0000
  C   C28       1.0  0.47145  0.91551  0.36864  1.0000
  C   C29       1.0  0.56239  0.24248  0.25689  1.0000
  C   C30       1.0  0.43762  0.75753  0.74312  1.0000
  C   C31       1.0  0.82948  0.14142  0.20543  1.0000
  C   C32       1.0  0.17052  0.85859  0.79457  1.0000
  C   C33       1.0  0.92565  0.21934  0.30466  1.0000
  C   C34       1.0  0.07435  0.78068  0.69535  1.0000
  C   C35       1.0  0.82298  0.30711  0.37825  1.0000
  C   C36       1.0  0.17702  0.69289  0.62176  1.0000
  N   N1        1.0  0.38272  0.25815  0.23261  1.0000
  N   N2        1.0  0.61729  0.74186  0.76740  1.0000
  N   N3        1.0  0.64941  0.15076  0.18077  1.0000
  N   N4        1.0  0.35059  0.84925  0.81923  1.0000
  N   N5        1.0  0.64275  0.31861  0.35645  1.0000
  N   N6        1.0  0.35724  0.68139  0.64356  1.0000
  O   O1        1.0  0.31247  0.86744  0.05138  1.0000
  O   O2        1.0  0.68754  0.13256  0.94863  1.0000
  O   O3        1.0  0.68439  0.85698  0.99090  1.0000
  O   O4        1.0  0.31563  0.14303  0.00911  1.0000
  O   O5        1.0  0.30172  0.32583  0.51153  1.0000
  O   O6        1.0  0.69827  0.67416  0.48847  1.0000
  O   O7        1.0  0.68886  0.46732  0.59496  1.0000
  O   O8        1.0  0.31113  0.53268  0.40504  1.0000
