data_image0
_chemical_formula_structural       Co2H40C36N8O12
_chemical_formula_sum              "Co2 H40 C36 N8 O12"
_cell_length_a       8.8908
_cell_length_b       9.24961
_cell_length_c       14.4223
_cell_angle_alpha    73.2932
_cell_angle_beta     81.8842
_cell_angle_gamma    79.9968

_space_group_name_H-M_alt    "P 1"
_space_group_IT_number       1

loop_
  _space_group_symop_operation_xyz
  'x, y, z'

loop_
  _atom_site_type_symbol
  _atom_site_label
  _atom_site_symmetry_multiplicity
  _atom_site_fract_x
  _atom_site_fract_y
  _atom_site_fract_z
  _atom_site_occupancy
  Co  Co1       1.0  0.12369  0.29497  0.03456  1.0000
  Co  Co2       1.0  0.87631  0.70503  0.96544  1.0000
  H   H1        1.0  0.63619  0.01294  0.43675  1.0000
  H   H2        1.0  0.36383  0.98705  0.56325  1.0000
  H   H3        1.0  0.58162  0.83183  0.49137  1.0000
  H   H4        1.0  0.41840  0.16816  0.50863  1.0000
  H   H5        1.0  0.61679  0.81865  0.77400  1.0000
  H   H6        1.0  0.38322  0.18135  0.22601  1.0000
  H   H7        1.0  0.63064  0.90221  0.64810  1.0000
  H   H8        1.0  0.36938  0.09779  0.35190  1.0000
  H   H9        1.0  0.89221  0.08871  0.03972  1.0000
  H   H10       1.0  0.10778  0.91131  0.96028  1.0000
  H   H11       1.0  0.73473  0.91283  0.16066  1.0000
  H   H12       1.0  0.26527  0.08718  0.83934  1.0000
  H   H13       1.0  0.89265  0.05730  0.38534  1.0000
  H   H14       1.0  0.10737  0.94269  0.61466  1.0000
  H   H15       1.0  0.04656  0.22786  0.25348  1.0000
  H   H16       1.0  0.95345  0.77213  0.74652  1.0000
  H   H17       1.0  0.21645  0.33407  0.81778  1.0000
  H   H18       1.0  0.78354  0.66595  0.18221  1.0000
  H   H19       1.0  0.34376  0.51355  0.68021  1.0000
  H   H20       1.0  0.65624  0.48646  0.31979  1.0000
  H   H21       1.0  0.47096  0.71419  0.88974  1.0000
  H   H22       1.0  0.52904  0.28581  0.11026  1.0000
  H   H23       1.0  0.33547  0.52777  0.01817  1.0000
  H   H24       1.0  0.66453  0.47223  0.98184  1.0000
  H   H25       1.0  0.43948  0.89502  0.20257  1.0000
  H   H26       1.0  0.56052  0.10497  0.79743  1.0000
  H   H27       1.0  0.52538  0.89957  0.08444  1.0000
  H   H28       1.0  0.47461  0.10042  0.91556  1.0000
  H   H29       1.0  0.42225  0.66023  0.15071  1.0000
  H   H30       1.0  0.57773  0.33976  0.84929  1.0000
  H   H31       1.0  0.31173  0.77429  0.05612  1.0000
  H   H32       1.0  0.68826  0.22572  0.94388  1.0000
  H   H33       1.0  0.21733  0.75381  0.27192  1.0000
  H   H34       1.0  0.78265  0.24620  0.72807  1.0000
  H   H35       1.0  0.10310  0.84171  0.17443  1.0000
  H   H36       1.0  0.89688  0.15829  0.82556  1.0000
  H   H37       1.0  0.21782  0.49792  0.24500  1.0000
  H   H38       1.0  0.78217  0.50208  0.75501  1.0000
  H   H39       1.0  0.03065  0.58910  0.26936  1.0000
  H   H40       1.0  0.96934  0.41090  0.73064  1.0000
  C   C1        1.0  0.88951  0.07896  0.11686  1.0000
  C   C2        1.0  0.11048  0.92105  0.88314  1.0000
  C   C3        1.0  0.80132  0.98047  0.18512  1.0000
  C   C4        1.0  0.19867  0.01954  0.81488  1.0000
  C   C5        1.0  0.80045  0.96955  0.28383  1.0000
  C   C6        1.0  0.19955  0.03044  0.71617  1.0000
  C   C7        1.0  0.88896  0.06071  0.30955  1.0000
  C   C8        1.0  0.11105  0.93928  0.69045  1.0000
  C   C9        1.0  0.97531  0.15556  0.23688  1.0000
  C   C10       1.0  0.02470  0.84444  0.76312  1.0000
  C   C11       1.0  0.71163  0.85670  0.35808  1.0000
  C   C12       1.0  0.28837  0.14331  0.64191  1.0000
  C   C13       1.0  0.27162  0.42121  0.83122  1.0000
  C   C14       1.0  0.72838  0.57879  0.16878  1.0000
  C   C15       1.0  0.34324  0.52226  0.75393  1.0000
  C   C16       1.0  0.65676  0.47775  0.24607  1.0000
  C   C17       1.0  0.41537  0.63260  0.77258  1.0000
  C   C18       1.0  0.58463  0.36739  0.22743  1.0000
  C   C19       1.0  0.41477  0.63336  0.86960  1.0000
  C   C20       1.0  0.58524  0.36664  0.13040  1.0000
  C   C21       1.0  0.33890  0.52883  0.94230  1.0000
  C   C22       1.0  0.66111  0.47117  0.05770  1.0000
  C   C23       1.0  0.48620  0.74496  0.68804  1.0000
  C   C24       1.0  0.51382  0.25504  0.31197  1.0000
  C   C25       1.0  0.32012  0.05328  0.08779  1.0000
  C   C26       1.0  0.67988  0.94672  0.91221  1.0000
  C   C27       1.0  0.41400  0.90082  0.12900  1.0000
  C   C28       1.0  0.58599  0.09916  0.87100  1.0000
  C   C29       1.0  0.33873  0.76367  0.13010  1.0000
  C   C30       1.0  0.66126  0.23633  0.86990  1.0000
  C   C31       1.0  0.19309  0.74670  0.20061  1.0000
  C   C32       1.0  0.80689  0.25330  0.79938  1.0000
  C   C33       1.0  0.13250  0.59592  0.21554  1.0000
  C   C34       1.0  0.86749  0.40408  0.78446  1.0000
  C   C35       1.0  0.08170  0.57275  0.12514  1.0000
  C   C36       1.0  0.91829  0.42725  0.87486  1.0000
  N   N1        1.0  0.97629  0.16504  0.14190  1.0000
  N   N2        1.0  0.02371  0.83497  0.85810  1.0000
  N   N3        1.0  0.64864  0.90013  0.43874  1.0000
  N   N4        1.0  0.35138  0.09986  0.56126  1.0000
  N   N5        1.0  0.26561  0.42516  0.92460  1.0000
  N   N6        1.0  0.73439  0.57484  0.07539  1.0000
  N   N7        1.0  0.58794  0.82308  0.70576  1.0000
  N   N8        1.0  0.41206  0.17693  0.29425  1.0000
  O   O1        1.0  0.70224  0.73231  0.34417  1.0000
  O   O2        1.0  0.29774  0.26767  0.65583  1.0000
  O   O3        1.0  0.44814  0.76389  0.60419  1.0000
  O   O4        1.0  0.55187  0.23612  0.39581  1.0000
  O   O5        1.0  0.32460  0.16791  0.12023  1.0000
  O   O6        1.0  0.67539  0.83209  0.87977  1.0000
  O   O7        1.0  0.23519  0.07006  0.02044  1.0000
  O   O8        1.0  0.76481  0.92993  0.97956  1.0000
  O   O9        1.0  0.02285  0.68959  0.06277  1.0000
  O   O10       1.0  0.97716  0.31040  0.93722  1.0000
  O   O11       1.0  0.09767  0.43705  0.11823  1.0000
  O   O12       1.0  0.90233  0.56295  0.88177  1.0000
