data_image0
_chemical_formula_structural       Cu6H20C24S4I2O4
_chemical_formula_sum              "Cu6 H20 C24 S4 I2 O4"
_cell_length_a       4.06509
_cell_length_b       5.76136
_cell_length_c       28.9638
_cell_angle_alpha    89.9991
_cell_angle_beta     90.0001
_cell_angle_gamma    90.0006

_space_group_name_H-M_alt    "P 1"
_space_group_IT_number       1

loop_
  _space_group_symop_operation_xyz
  'x, y, z'

loop_
  _atom_site_type_symbol
  _atom_site_label
  _atom_site_symmetry_multiplicity
  _atom_site_fract_x
  _atom_site_fract_y
  _atom_site_fract_z
  _atom_site_occupancy
  Cu  Cu1       1.0  0.05979  0.28628  0.95502  1.0000
  Cu  Cu2       1.0  0.55976  0.71369  0.54498  1.0000
  Cu  Cu3       1.0  0.44015  0.71374  0.45503  1.0000
  Cu  Cu4       1.0  0.94018  0.28627  0.04497  1.0000
  Cu  Cu5       1.0  0.50002  0.00401  0.99999  1.0000
  Cu  Cu6       1.0  0.99995  0.99599  0.50001  1.0000
  H   H1        1.0  0.29898  0.71750  0.90994  1.0000
  H   H2        1.0  0.79902  0.28250  0.59006  1.0000
  H   H3        1.0  0.20100  0.28253  0.40995  1.0000
  H   H4        1.0  0.70105  0.71749  0.09005  1.0000
  H   H5        1.0  0.88758  0.25253  0.84697  1.0000
  H   H6        1.0  0.38757  0.74748  0.65303  1.0000
  H   H7        1.0  0.61245  0.74745  0.34699  1.0000
  H   H8        1.0  0.11247  0.25254  0.15301  1.0000
  H   H9        1.0  0.32860  0.48614  0.83787  1.0000
  H   H10       1.0  0.82862  0.51387  0.66213  1.0000
  H   H11       1.0  0.17136  0.51386  0.33787  1.0000
  H   H12       1.0  0.67138  0.48612  0.16213  1.0000
  H   H13       1.0  0.91568  0.02159  0.77467  1.0000
  H   H14       1.0  0.41570  0.97843  0.72534  1.0000
  H   H15       1.0  0.58432  0.97836  0.27468  1.0000
  H   H16       1.0  0.08434  0.02161  0.22532  1.0000
  H   H17       1.0  0.43886  0.51849  0.75498  1.0000
  H   H18       1.0  0.93887  0.48155  0.74502  1.0000
  H   H19       1.0  0.06108  0.48149  0.25498  1.0000
  H   H20       1.0  0.56108  0.51848  0.24502  1.0000
  C   C1        1.0  0.58459  0.00235  0.88272  1.0000
  C   C2        1.0  0.08460  0.99763  0.61729  1.0000
  C   C3        1.0  0.91541  0.99767  0.38273  1.0000
  C   C4        1.0  0.41546  0.00234  0.11727  1.0000
  C   C5        1.0  0.43220  0.78539  0.88026  1.0000
  C   C6        1.0  0.93219  0.21462  0.61975  1.0000
  C   C7        1.0  0.06781  0.21462  0.38026  1.0000
  C   C8        1.0  0.56784  0.78538  0.11974  1.0000
  C   C9        1.0  0.76246  0.08562  0.84470  1.0000
  C   C10       1.0  0.26245  0.91439  0.65530  1.0000
  C   C11       1.0  0.73755  0.91438  0.34471  1.0000
  C   C12       1.0  0.23759  0.08561  0.15529  1.0000
  C   C13       1.0  0.44772  0.65551  0.83966  1.0000
  C   C14       1.0  0.94773  0.34449  0.66034  1.0000
  C   C15       1.0  0.05227  0.34448  0.33967  1.0000
  C   C16       1.0  0.55230  0.65552  0.16033  1.0000
  C   C17       1.0  0.77829  0.95713  0.80420  1.0000
  C   C18       1.0  0.27829  0.04286  0.69580  1.0000
  C   C19       1.0  0.72173  0.04283  0.30421  1.0000
  C   C20       1.0  0.22175  0.95715  0.19579  1.0000
  C   C21       1.0  0.61653  0.74378  0.80145  1.0000
  C   C22       1.0  0.11650  0.25625  0.69855  1.0000
  C   C23       1.0  0.88346  0.25620  0.30145  1.0000
  C   C24       1.0  0.38348  0.74379  0.19855  1.0000
  S   S1        1.0  0.55915  0.18725  0.93186  1.0000
  S   S2        1.0  0.05912  0.81273  0.56814  1.0000
  S   S3        1.0  0.94080  0.81279  0.43188  1.0000
  S   S4        1.0  0.44083  0.18723  0.06813  1.0000
  I   I1        1.0  0.00006  0.67837  0.99999  1.0000
  I   I2        1.0  0.50003  0.32162  0.50000  1.0000
  O   O1        1.0  0.63199  0.62729  0.75974  1.0000
  O   O2        1.0  0.13198  0.37275  0.74026  1.0000
  O   O3        1.0  0.86798  0.37269  0.25975  1.0000
  O   O4        1.0  0.36798  0.62728  0.24025  1.0000
