data_image0
_chemical_formula_structural       Cu6H20C24S4I2O4
_chemical_formula_sum              "Cu6 H20 C24 S4 I2 O4"
_cell_length_a       4.06305
_cell_length_b       5.75303
_cell_length_c       29.1701
_cell_angle_alpha    89.9995
_cell_angle_beta     89.9993
_cell_angle_gamma    90.0011

_space_group_name_H-M_alt    "P 1"
_space_group_IT_number       1

loop_
  _space_group_symop_operation_xyz
  'x, y, z'

loop_
  _atom_site_type_symbol
  _atom_site_label
  _atom_site_symmetry_multiplicity
  _atom_site_fract_x
  _atom_site_fract_y
  _atom_site_fract_z
  _atom_site_occupancy
  Cu  Cu1       1.0  0.21331  0.48646  1.00000  1.0000
  Cu  Cu2       1.0  0.71331  0.51357  0.50000  1.0000
  Cu  Cu3       1.0  0.77084  0.77684  0.04533  1.0000
  Cu  Cu4       1.0  0.27084  0.22317  0.45467  1.0000
  Cu  Cu5       1.0  0.27084  0.22317  0.54533  1.0000
  Cu  Cu6       1.0  0.77083  0.77684  0.95467  1.0000
  H   H1        1.0  0.60058  0.74806  0.15095  1.0000
  H   H2        1.0  0.10058  0.25195  0.34905  1.0000
  H   H3        1.0  0.10058  0.25194  0.65096  1.0000
  H   H4        1.0  0.60057  0.74806  0.84904  1.0000
  H   H5        1.0  0.00937  0.20502  0.09152  1.0000
  H   H6        1.0  0.50941  0.79499  0.40848  1.0000
  H   H7        1.0  0.50940  0.79497  0.59152  1.0000
  H   H8        1.0  0.00939  0.20502  0.90848  1.0000
  H   H9        1.0  0.63684  0.52448  0.22372  1.0000
  H   H10       1.0  0.13681  0.47552  0.27628  1.0000
  H   H11       1.0  0.13682  0.47552  0.72372  1.0000
  H   H12       1.0  0.63681  0.52447  0.77628  1.0000
  H   H13       1.0  0.04817  0.98011  0.16393  1.0000
  H   H14       1.0  0.54818  0.01990  0.33607  1.0000
  H   H15       1.0  0.54817  0.01988  0.66393  1.0000
  H   H16       1.0  0.04818  0.98009  0.83607  1.0000
  H   H17       1.0  0.16518  0.01821  0.24520  1.0000
  H   H18       1.0  0.66517  0.98179  0.25479  1.0000
  H   H19       1.0  0.66517  0.98179  0.74520  1.0000
  H   H20       1.0  0.16518  0.01820  0.75480  1.0000
  C   C1        1.0  0.29821  0.49265  0.11693  1.0000
  C   C2        1.0  0.79822  0.50736  0.38307  1.0000
  C   C3        1.0  0.79821  0.50734  0.61693  1.0000
  C   C4        1.0  0.29820  0.49266  0.88307  1.0000
  C   C5        1.0  0.47785  0.58036  0.15413  1.0000
  C   C6        1.0  0.97784  0.41964  0.34587  1.0000
  C   C7        1.0  0.97784  0.41963  0.65413  1.0000
  C   C8        1.0  0.47782  0.58037  0.84587  1.0000
  C   C9        1.0  0.14583  0.27574  0.12048  1.0000
  C   C10       1.0  0.64586  0.72427  0.37953  1.0000
  C   C11       1.0  0.64584  0.72425  0.62048  1.0000
  C   C12       1.0  0.14583  0.27573  0.87953  1.0000
  C   C13       1.0  0.49758  0.45608  0.19486  1.0000
  C   C14       1.0  0.99758  0.54392  0.30514  1.0000
  C   C15       1.0  0.99756  0.54392  0.69486  1.0000
  C   C16       1.0  0.49755  0.45608  0.80514  1.0000
  C   C17       1.0  0.16573  0.14989  0.16127  1.0000
  C   C18       1.0  0.66576  0.85011  0.33873  1.0000
  C   C19       1.0  0.66574  0.85010  0.66127  1.0000
  C   C20       1.0  0.16574  0.14987  0.83874  1.0000
  C   C21       1.0  0.33754  0.24204  0.19859  1.0000
  C   C22       1.0  0.83756  0.75797  0.30140  1.0000
  C   C23       1.0  0.83754  0.75795  0.69859  1.0000
  C   C24       1.0  0.33755  0.24203  0.80141  1.0000
  S   S1        1.0  0.26967  0.67297  0.06741  1.0000
  S   S2        1.0  0.76969  0.32705  0.43260  1.0000
  S   S3        1.0  0.76969  0.32703  0.56741  1.0000
  S   S4        1.0  0.26967  0.67298  0.93259  1.0000
  I   I1        1.0  0.71822  0.16574  1.00000  1.0000
  I   I2        1.0  0.21824  0.83426  0.50000  1.0000
  O   O1        1.0  0.35683  0.12826  0.24031  1.0000
  O   O2        1.0  0.85683  0.87174  0.25969  1.0000
  O   O3        1.0  0.85683  0.87173  0.74031  1.0000
  O   O4        1.0  0.35684  0.12826  0.75969  1.0000
