data_image0
_chemical_formula_structural       Hg2H34C32N4O8
_chemical_formula_sum              "Hg2 H34 C32 N4 O8"
_cell_length_a       8.71859
_cell_length_b       10.2537
_cell_length_c       11.1426
_cell_angle_alpha    112.335
_cell_angle_beta     97.4247
_cell_angle_gamma    105.119

_space_group_name_H-M_alt    "P 1"
_space_group_IT_number       1

loop_
  _space_group_symop_operation_xyz
  'x, y, z'

loop_
  _atom_site_type_symbol
  _atom_site_label
  _atom_site_symmetry_multiplicity
  _atom_site_fract_x
  _atom_site_fract_y
  _atom_site_fract_z
  _atom_site_occupancy
  Hg  Hg1       1.0  0.35342  0.47669  0.32760  1.0000
  Hg  Hg2       1.0  0.64657  0.52330  0.67238  1.0000
  H   H1        1.0  0.04048  0.66361  0.18606  1.0000
  H   H2        1.0  0.95952  0.33640  0.81395  1.0000
  H   H3        1.0  0.11617  0.50996  0.13880  1.0000
  H   H4        1.0  0.88381  0.49005  0.86121  1.0000
  H   H5        1.0  0.12844  0.62114  0.04754  1.0000
  H   H6        1.0  0.87154  0.37886  0.95247  1.0000
  H   H7        1.0  0.69834  0.75220  0.50709  1.0000
  H   H8        1.0  0.30165  0.24779  0.49290  1.0000
  H   H9        1.0  0.92028  0.99828  0.59566  1.0000
  H   H10       1.0  0.07971  0.00171  0.40433  1.0000
  H   H11       1.0  0.89268  0.19407  0.52577  1.0000
  H   H12       1.0  0.10732  0.80593  0.47424  1.0000
  H   H13       1.0  0.63768  0.15134  0.36286  1.0000
  H   H14       1.0  0.36232  0.84867  0.63714  1.0000
  H   H15       1.0  0.30687  0.04637  0.25689  1.0000
  H   H16       1.0  0.69313  0.95363  0.74311  1.0000
  H   H17       1.0  0.18269  0.87008  0.12511  1.0000
  H   H18       1.0  0.81731  0.12992  0.87487  1.0000
  H   H19       1.0  0.43138  0.74909  0.00061  1.0000
  H   H20       1.0  0.56863  0.25092  0.99940  1.0000
  H   H21       1.0  0.41176  0.19792  0.15321  1.0000
  H   H22       1.0  0.58825  0.80208  0.84679  1.0000
  H   H23       1.0  0.81421  0.05516  0.11314  1.0000
  H   H24       1.0  0.18580  0.94483  0.88687  1.0000
  H   H25       1.0  0.92696  0.05202  0.25757  1.0000
  H   H26       1.0  0.07305  0.94797  0.74243  1.0000
  H   H27       1.0  0.96509  0.96796  0.09711  1.0000
  H   H28       1.0  0.03492  0.03203  0.90289  1.0000
  H   H29       1.0  0.87805  0.40134  0.24841  1.0000
  H   H30       1.0  0.12195  0.59865  0.75158  1.0000
  H   H31       1.0  0.86720  0.37122  0.39616  1.0000
  H   H32       1.0  0.13281  0.62878  0.60383  1.0000
  H   H33       1.0  0.93348  0.55582  0.40896  1.0000
  H   H34       1.0  0.06653  0.44418  0.59103  1.0000
  C   C1        1.0  0.13796  0.62395  0.14777  1.0000
  C   C2        1.0  0.86202  0.37606  0.85224  1.0000
  C   C3        1.0  0.30246  0.72314  0.23710  1.0000
  C   C4        1.0  0.69754  0.27686  0.76290  1.0000
  C   C5        1.0  0.54496  0.81154  0.38025  1.0000
  C   C6        1.0  0.45503  0.18846  0.61975  1.0000
  C   C7        1.0  0.68565  0.83597  0.47281  1.0000
  C   C8        1.0  0.31435  0.16403  0.52719  1.0000
  C   C9        1.0  0.80885  0.97505  0.52292  1.0000
  C   C10       1.0  0.19114  0.02494  0.47708  1.0000
  C   C11       1.0  0.79285  0.08682  0.48300  1.0000
  C   C12       1.0  0.20715  0.91319  0.51701  1.0000
  C   C13       1.0  0.65240  0.06395  0.39132  1.0000
  C   C14       1.0  0.34760  0.93606  0.60868  1.0000
  C   C15       1.0  0.53005  0.92396  0.34049  1.0000
  C   C16       1.0  0.46994  0.07604  0.65951  1.0000
  C   C17       1.0  0.31014  0.94087  0.18151  1.0000
  C   C18       1.0  0.68986  0.05913  0.81849  1.0000
  C   C19       1.0  0.41037  0.97081  0.08824  1.0000
  C   C20       1.0  0.58964  0.02919  0.91176  1.0000
  C   C21       1.0  0.46083  0.85973  0.00171  1.0000
  C   C22       1.0  0.53920  0.14028  0.99829  1.0000
  C   C23       1.0  0.45040  0.11086  0.08587  1.0000
  C   C24       1.0  0.54961  0.88916  0.91414  1.0000
  C   C25       1.0  0.67529  0.44544  0.32894  1.0000
  C   C26       1.0  0.32471  0.55456  0.67105  1.0000
  C   C27       1.0  0.06258  0.20825  0.18952  1.0000
  C   C28       1.0  0.93742  0.79174  0.81048  1.0000
  C   C29       1.0  0.93431  0.06271  0.16428  1.0000
  C   C30       1.0  0.06570  0.93728  0.83573  1.0000
  C   C31       1.0  0.84852  0.44107  0.34573  1.0000
  C   C32       1.0  0.15148  0.55893  0.65426  1.0000
  N   N1        1.0  0.40089  0.68903  0.31445  1.0000
  N   N2        1.0  0.59911  0.31097  0.68555  1.0000
  N   N3        1.0  0.37630  0.86440  0.25086  1.0000
  N   N4        1.0  0.62370  0.13561  0.74914  1.0000
  O   O1        1.0  0.61736  0.47697  0.23807  1.0000
  O   O2        1.0  0.38265  0.52304  0.76194  1.0000
  O   O3        1.0  0.17842  0.26636  0.30109  1.0000
  O   O4        1.0  0.82159  0.73364  0.69891  1.0000
  O   O5        1.0  0.59310  0.41796  0.41052  1.0000
  O   O6        1.0  0.40690  0.58203  0.58948  1.0000
  O   O7        1.0  0.05651  0.26481  0.10830  1.0000
  O   O8        1.0  0.94348  0.73518  0.89170  1.0000
