data_image0
_chemical_formula_structural       Ag2H24C26S2N12O6F6
_chemical_formula_sum              "Ag2 H24 C26 S2 N12 O6 F6"
_cell_length_a       7.1789
_cell_length_b       11.5486
_cell_length_c       11.9083
_cell_angle_alpha    106.729
_cell_angle_beta     94.0407
_cell_angle_gamma    96.0757

_space_group_name_H-M_alt    "P 1"
_space_group_IT_number       1

loop_
  _space_group_symop_operation_xyz
  'x, y, z'

loop_
  _atom_site_type_symbol
  _atom_site_label
  _atom_site_symmetry_multiplicity
  _atom_site_fract_x
  _atom_site_fract_y
  _atom_site_fract_z
  _atom_site_occupancy
  Ag  Ag1       1.0  0.25589  0.92384  0.15916  1.0000
  Ag  Ag2       1.0  0.74411  0.07615  0.84084  1.0000
  H   H1        1.0  0.49352  0.90524  0.38171  1.0000
  H   H2        1.0  0.50649  0.09476  0.61828  1.0000
  H   H3        1.0  0.21256  0.48076  0.24648  1.0000
  H   H4        1.0  0.78744  0.51924  0.75352  1.0000
  H   H5        1.0  0.13522  0.62771  0.13399  1.0000
  H   H6        1.0  0.86478  0.37229  0.86601  1.0000
  H   H7        1.0  0.56888  0.59532  0.55662  1.0000
  H   H8        1.0  0.43112  0.40468  0.44338  1.0000
  H   H9        1.0  0.73355  0.71086  0.66208  1.0000
  H   H10       1.0  0.26645  0.28914  0.33792  1.0000
  H   H11       1.0  0.79940  0.62984  0.52393  1.0000
  H   H12       1.0  0.20060  0.37016  0.47607  1.0000
  H   H13       1.0  0.37577  0.92456  0.68182  1.0000
  H   H14       1.0  0.62423  0.07543  0.31818  1.0000
  H   H15       1.0  0.45441  0.13999  0.03018  1.0000
  H   H16       1.0  0.54559  0.86001  0.96982  1.0000
  H   H17       1.0  0.10327  0.14033  0.03085  1.0000
  H   H18       1.0  0.89673  0.85967  0.96915  1.0000
  H   H19       1.0  0.97387  0.84770  0.45593  1.0000
  H   H20       1.0  0.02614  0.15230  0.54407  1.0000
  H   H21       1.0  0.13548  0.78518  0.53391  1.0000
  H   H22       1.0  0.86452  0.21483  0.46609  1.0000
  H   H23       1.0  0.19667  0.93341  0.52016  1.0000
  H   H24       1.0  0.80333  0.06659  0.47984  1.0000
  C   C1        1.0  0.43174  0.80975  0.35053  1.0000
  C   C2        1.0  0.56826  0.19025  0.64947  1.0000
  C   C3        1.0  0.47930  0.72740  0.41119  1.0000
  C   C4        1.0  0.52070  0.27260  0.58881  1.0000
  C   C5        1.0  0.27652  0.57600  0.27695  1.0000
  C   C6        1.0  0.72348  0.42399  0.72305  1.0000
  C   C7        1.0  0.23104  0.65712  0.21512  1.0000
  C   C8        1.0  0.76896  0.34288  0.78488  1.0000
  C   C9        1.0  0.62130  0.76399  0.51547  1.0000
  C   C10       1.0  0.37870  0.23601  0.48453  1.0000
  C   C11       1.0  0.68207  0.67024  0.56867  1.0000
  C   C12       1.0  0.31793  0.32976  0.43133  1.0000
  C   C13       1.0  0.31355  0.97613  0.75826  1.0000
  C   C14       1.0  0.68645  0.02387  0.24174  1.0000
  C   C15       1.0  0.35727  0.09252  0.95211  1.0000
  C   C16       1.0  0.64273  0.90748  0.04789  1.0000
  C   C17       1.0  0.16322  0.09402  0.95106  1.0000
  C   C18       1.0  0.83677  0.90598  0.04894  1.0000
  C   C19       1.0  0.11919  0.98166  0.75447  1.0000
  C   C20       1.0  0.88081  0.01834  0.24553  1.0000
  C   C21       1.0  0.99481  0.92343  0.64393  1.0000
  C   C22       1.0  0.00519  0.07657  0.35607  1.0000
  C   C23       1.0  0.08006  0.86994  0.53227  1.0000
  C   C24       1.0  0.91994  0.13006  0.46773  1.0000
  C   C25       1.0  0.26931  0.62441  0.75448  1.0000
  C   C26       1.0  0.73069  0.37559  0.24553  1.0000
  S   S1        1.0  0.12175  0.69332  0.87280  1.0000
  S   S2        1.0  0.87825  0.30668  0.12720  1.0000
  N   N1        1.0  0.43282  0.03343  0.85525  1.0000
  N   N2        1.0  0.56719  0.96657  0.14475  1.0000
  N   N3        1.0  0.30928  0.77480  0.25331  1.0000
  N   N4        1.0  0.69072  0.22520  0.74669  1.0000
  N   N5        1.0  0.04510  0.04181  0.85296  1.0000
  N   N6        1.0  0.95490  0.95819  0.14704  1.0000
  N   N7        1.0  0.81479  0.92153  0.64959  1.0000
  N   N8        1.0  0.18521  0.07847  0.35040  1.0000
  N   N9        1.0  0.69083  0.87883  0.55330  1.0000
  N   N10       1.0  0.30918  0.12117  0.44669  1.0000
  N   N11       1.0  0.39954  0.61018  0.37402  1.0000
  N   N12       1.0  0.60046  0.38982  0.62598  1.0000
  O   O1        1.0  0.10692  0.60668  0.94009  1.0000
  O   O2        1.0  0.89307  0.39332  0.05991  1.0000
  O   O3        1.0  0.94730  0.70396  0.80791  1.0000
  O   O4        1.0  0.05270  0.29604  0.19209  1.0000
  O   O5        1.0  0.23456  0.81163  0.93342  1.0000
  O   O6        1.0  0.76545  0.18837  0.06658  1.0000
  F   F1        1.0  0.27808  0.68784  0.67358  1.0000
  F   F2        1.0  0.72193  0.31215  0.32641  1.0000
  F   F3        1.0  0.44792  0.62540  0.80022  1.0000
  F   F4        1.0  0.55208  0.37460  0.19979  1.0000
  F   F5        1.0  0.19706  0.50722  0.69533  1.0000
  F   F6        1.0  0.80294  0.49278  0.30468  1.0000
