data_image0
_chemical_formula_structural       Cd2H8C12N4O10
_chemical_formula_sum              "Cd2 H8 C12 N4 O10"
_cell_length_a       6.7972
_cell_length_b       7.641
_cell_length_c       8.09604
_cell_angle_alpha    84.5494
_cell_angle_beta     77.4591
_cell_angle_gamma    86.9143

_space_group_name_H-M_alt    "P 1"
_space_group_IT_number       1

loop_
  _space_group_symop_operation_xyz
  'x, y, z'

loop_
  _atom_site_type_symbol
  _atom_site_label
  _atom_site_symmetry_multiplicity
  _atom_site_fract_x
  _atom_site_fract_y
  _atom_site_fract_z
  _atom_site_occupancy
  Cd  Cd1       1.0  0.28293  0.35166  0.58770  1.0000
  Cd  Cd2       1.0  0.71706  0.64834  0.41229  1.0000
  H   H1        1.0  0.32186  0.36278  0.16348  1.0000
  H   H2        1.0  0.67815  0.63720  0.83651  1.0000
  H   H3        1.0  0.29125  0.13834  0.95743  1.0000
  H   H4        1.0  0.70876  0.86165  0.04256  1.0000
  H   H5        1.0  0.18899  0.62287  0.79552  1.0000
  H   H6        1.0  0.81102  0.37713  0.20447  1.0000
  H   H7        1.0  0.04439  0.46658  0.86055  1.0000
  H   H8        1.0  0.95562  0.53343  0.13946  1.0000
  C   C1        1.0  0.23428  0.68573  0.35588  1.0000
  C   C2        1.0  0.76571  0.31427  0.64413  1.0000
  C   C3        1.0  0.29976  0.22397  0.20465  1.0000
  C   C4        1.0  0.70024  0.77602  0.79535  1.0000
  C   C5        1.0  0.28534  0.10047  0.09153  1.0000
  C   C6        1.0  0.71468  0.89952  0.90846  1.0000
  C   C7        1.0  0.25358  0.88081  0.30722  1.0000
  C   C8        1.0  0.74641  0.11919  0.69278  1.0000
  C   C9        1.0  0.25858  0.00392  0.42453  1.0000
  C   C10       1.0  0.74141  0.99609  0.57547  1.0000
  C   C11       1.0  0.23394  0.95304  0.61400  1.0000
  C   C12       1.0  0.76607  0.04696  0.38600  1.0000
  N   N1        1.0  0.28486  0.17408  0.36930  1.0000
  N   N2        1.0  0.71514  0.82593  0.63070  1.0000
  N   N3        1.0  0.26422  0.92954  0.14194  1.0000
  N   N4        1.0  0.73579  0.07046  0.85805  1.0000
  O   O1        1.0  0.07649  0.61442  0.34436  1.0000
  O   O2        1.0  0.92351  0.38558  0.65564  1.0000
  O   O3        1.0  0.38618  0.59710  0.39574  1.0000
  O   O4        1.0  0.61380  0.40289  0.60426  1.0000
  O   O5        1.0  0.17783  0.79909  0.66322  1.0000
  O   O6        1.0  0.82217  0.20091  0.33678  1.0000
  O   O7        1.0  0.27082  0.06778  0.70637  1.0000
  O   O8        1.0  0.72919  0.93222  0.29362  1.0000
  O   O9        1.0  0.18680  0.49540  0.84067  1.0000
  O   O10       1.0  0.81320  0.50461  0.15933  1.0000
