data_image0
_chemical_formula_structural       Na4H20C20N24O4
_chemical_formula_sum              "Na4 H20 C20 N24 O4"
_cell_length_a       6.62779
_cell_length_b       7.22231
_cell_length_c       16.6569
_cell_angle_alpha    88.5118
_cell_angle_beta     88.2671
_cell_angle_gamma    77.1845

_space_group_name_H-M_alt    "P 1"
_space_group_IT_number       1

loop_
  _space_group_symop_operation_xyz
  'x, y, z'

loop_
  _atom_site_type_symbol
  _atom_site_label
  _atom_site_symmetry_multiplicity
  _atom_site_fract_x
  _atom_site_fract_y
  _atom_site_fract_z
  _atom_site_occupancy
  Na  Na1       1.0  0.20323  0.27089  0.70177  1.0000
  Na  Na2       1.0  0.79676  0.72911  0.29823  1.0000
  Na  Na3       1.0  0.55160  0.39269  0.86501  1.0000
  Na  Na4       1.0  0.44840  0.60731  0.13499  1.0000
  H   H1        1.0  0.30659  0.88754  0.76298  1.0000
  H   H2        1.0  0.69342  0.11246  0.23702  1.0000
  H   H3        1.0  0.19209  0.87853  0.68145  1.0000
  H   H4        1.0  0.80791  0.12147  0.31855  1.0000
  H   H5        1.0  0.21139  0.21695  0.87089  1.0000
  H   H6        1.0  0.78861  0.78305  0.12911  1.0000
  H   H7        1.0  0.09900  0.43631  0.85640  1.0000
  H   H8        1.0  0.90100  0.56369  0.14360  1.0000
  H   H9        1.0  0.42473  0.18707  0.50353  1.0000
  H   H10       1.0  0.57527  0.81293  0.49647  1.0000
  H   H11       1.0  0.30707  0.12898  0.36564  1.0000
  H   H12       1.0  0.69292  0.87102  0.63436  1.0000
  H   H13       1.0  0.69327  0.29798  0.44625  1.0000
  H   H14       1.0  0.30672  0.70202  0.55374  1.0000
  H   H15       1.0  0.77548  0.02119  0.73741  1.0000
  H   H16       1.0  0.22452  0.97881  0.26259  1.0000
  H   H17       1.0  0.91651  0.66533  0.74450  1.0000
  H   H18       1.0  0.08349  0.33468  0.25550  1.0000
  H   H19       1.0  0.87985  0.68091  0.99363  1.0000
  H   H20       1.0  0.12016  0.31908  0.00637  1.0000
  C   C1        1.0  0.26129  0.20424  0.49061  1.0000
  C   C2        1.0  0.73870  0.79576  0.50940  1.0000
  C   C3        1.0  0.19436  0.17504  0.41432  1.0000
  C   C4        1.0  0.80563  0.82496  0.58568  1.0000
  C   C5        1.0  0.85788  0.26521  0.45911  1.0000
  C   C6        1.0  0.14212  0.73479  0.54089  1.0000
  C   C7        1.0  0.92517  0.28847  0.53683  1.0000
  C   C8        1.0  0.07482  0.71153  0.46317  1.0000
  C   C9        1.0  0.77877  0.34315  0.60369  1.0000
  C   C10       1.0  0.22122  0.65685  0.39631  1.0000
  C   C11       1.0  0.79690  0.94424  0.79481  1.0000
  C   C12       1.0  0.20310  0.05576  0.20519  1.0000
  C   C13       1.0  0.87572  0.74844  0.79861  1.0000
  C   C14       1.0  0.12428  0.25157  0.20139  1.0000
  C   C15       1.0  0.85602  0.75664  0.93599  1.0000
  C   C16       1.0  0.14399  0.24336  0.06400  1.0000
  C   C17       1.0  0.77677  0.95385  0.93214  1.0000
  C   C18       1.0  0.22324  0.04614  0.06786  1.0000
  C   C19       1.0  0.72337  0.06719  0.00404  1.0000
  C   C20       1.0  0.27663  0.93281  0.99596  1.0000
  N   N1        1.0  0.12852  0.25793  0.55213  1.0000
  N   N2        1.0  0.87148  0.74206  0.44787  1.0000
  N   N3        1.0  0.99144  0.20548  0.39853  1.0000
  N   N4        1.0  0.00856  0.79453  0.60147  1.0000
  N   N5        1.0  0.83315  0.37127  0.67930  1.0000
  N   N6        1.0  0.16685  0.62873  0.32070  1.0000
  N   N7        1.0  0.65423  0.41221  0.72142  1.0000
  N   N8        1.0  0.34577  0.58779  0.27858  1.0000
  N   N9        1.0  0.49839  0.40881  0.67298  1.0000
  N   N10       1.0  0.50161  0.59119  0.32702  1.0000
  N   N11       1.0  0.57246  0.36575  0.59850  1.0000
  N   N12       1.0  0.42753  0.63425  0.40150  1.0000
  N   N13       1.0  0.74658  0.04710  0.86077  1.0000
  N   N14       1.0  0.25343  0.95290  0.13923  1.0000
  N   N15       1.0  0.90497  0.65496  0.86949  1.0000
  N   N16       1.0  0.09503  0.34504  0.13051  1.0000
  N   N17       1.0  0.63966  0.25539  0.00266  1.0000
  N   N18       1.0  0.36035  0.74461  0.99734  1.0000
  N   N19       1.0  0.61197  0.30290  0.08007  1.0000
  N   N20       1.0  0.38804  0.69710  0.91993  1.0000
  N   N21       1.0  0.67716  0.15029  0.12642  1.0000
  N   N22       1.0  0.32285  0.84970  0.87358  1.0000
  N   N23       1.0  0.74823  0.99991  0.08013  1.0000
  N   N24       1.0  0.25178  0.00008  0.91988  1.0000
  O   O1        1.0  0.29214  0.93933  0.70706  1.0000
  O   O2        1.0  0.70787  0.06067  0.29294  1.0000
  O   O3        1.0  0.21858  0.33491  0.83878  1.0000
  O   O4        1.0  0.78142  0.66509  0.16122  1.0000
