data_image0
_chemical_formula_structural       Co2H28C36N4O14
_chemical_formula_sum              "Co2 H28 C36 N4 O14"
_cell_length_a       7.24492
_cell_length_b       10.6313
_cell_length_c       10.7558
_cell_angle_alpha    97.6962
_cell_angle_beta     103.857
_cell_angle_gamma    94.3995

_space_group_name_H-M_alt    "P 1"
_space_group_IT_number       1

loop_
  _space_group_symop_operation_xyz
  'x, y, z'

loop_
  _atom_site_type_symbol
  _atom_site_label
  _atom_site_symmetry_multiplicity
  _atom_site_fract_x
  _atom_site_fract_y
  _atom_site_fract_z
  _atom_site_occupancy
  Co  Co1       1.0  0.68286  0.64044  0.86937  1.0000
  Co  Co2       1.0  0.31714  0.35956  0.13063  1.0000
  H   H1        1.0  0.69109  0.45213  0.02489  1.0000
  H   H2        1.0  0.30891  0.54787  0.97511  1.0000
  H   H3        1.0  0.80355  0.43265  0.90954  1.0000
  H   H4        1.0  0.19645  0.56735  0.09046  1.0000
  H   H5        1.0  0.45688  0.57002  0.38062  1.0000
  H   H6        1.0  0.54311  0.42999  0.61938  1.0000
  H   H7        1.0  0.69616  0.75653  0.61047  1.0000
  H   H8        1.0  0.30384  0.24347  0.38953  1.0000
  H   H9        1.0  0.75220  0.97797  0.55884  1.0000
  H   H10       1.0  0.24780  0.02203  0.44116  1.0000
  H   H11       1.0  0.80586  0.16537  0.73560  1.0000
  H   H12       1.0  0.19414  0.83463  0.26440  1.0000
  H   H13       1.0  0.83018  0.24523  0.97437  1.0000
  H   H14       1.0  0.16981  0.75476  0.02563  1.0000
  H   H15       1.0  0.80474  0.19827  0.18736  1.0000
  H   H16       1.0  0.19525  0.80173  0.81264  1.0000
  H   H17       1.0  0.73943  0.03455  0.32963  1.0000
  H   H18       1.0  0.26056  0.96545  0.67036  1.0000
  H   H19       1.0  0.67128  0.80184  0.34597  1.0000
  H   H20       1.0  0.32872  0.19816  0.65403  1.0000
  H   H21       1.0  0.65221  0.63675  0.15465  1.0000
  H   H22       1.0  0.34780  0.36325  0.84535  1.0000
  H   H23       1.0  0.08420  0.65878  0.63328  1.0000
  H   H24       1.0  0.91580  0.34122  0.36673  1.0000
  H   H25       1.0  0.25467  0.47296  0.45983  1.0000
  H   H26       1.0  0.74533  0.52705  0.54017  1.0000
  H   H27       1.0  0.07377  0.36962  0.62731  1.0000
  H   H28       1.0  0.92623  0.63038  0.37269  1.0000
  C   C1        1.0  0.71861  0.84002  0.68523  1.0000
  C   C2        1.0  0.28140  0.15998  0.31476  1.0000
  C   C3        1.0  0.75104  0.96409  0.65714  1.0000
  C   C4        1.0  0.24896  0.03591  0.34286  1.0000
  C   C5        1.0  0.77892  0.06824  0.75438  1.0000
  C   C6        1.0  0.22108  0.93176  0.24563  1.0000
  C   C7        1.0  0.79846  0.14720  0.98832  1.0000
  C   C8        1.0  0.20154  0.85280  0.01168  1.0000
  C   C9        1.0  0.78520  0.12067  0.10696  1.0000
  C   C10       1.0  0.21479  0.87933  0.89304  1.0000
  C   C11       1.0  0.72835  0.95923  0.24758  1.0000
  C   C12       1.0  0.27165  0.04077  0.75242  1.0000
  C   C13       1.0  0.69328  0.83156  0.25714  1.0000
  C   C14       1.0  0.30672  0.16844  0.74285  1.0000
  C   C15       1.0  0.68034  0.73754  0.14940  1.0000
  C   C16       1.0  0.31966  0.26246  0.85059  1.0000
  C   C17       1.0  0.74704  0.99232  0.12802  1.0000
  C   C18       1.0  0.25296  0.00768  0.87198  1.0000
  C   C19       1.0  0.72712  0.89145  0.02366  1.0000
  C   C20       1.0  0.27288  0.10855  0.97633  1.0000
  C   C21       1.0  0.77241  0.04735  0.88022  1.0000
  C   C22       1.0  0.22759  0.95265  0.11978  1.0000
  C   C23       1.0  0.73690  0.91915  0.89897  1.0000
  C   C24       1.0  0.26310  0.08085  0.10103  1.0000
  C   C25       1.0  0.33777  0.58179  0.71543  1.0000
  C   C26       1.0  0.66223  0.41821  0.28458  1.0000
  C   C27       1.0  0.14730  0.56932  0.61381  1.0000
  C   C28       1.0  0.85270  0.43068  0.38619  1.0000
  C   C29       1.0  0.17972  0.55712  0.47724  1.0000
  C   C30       1.0  0.82028  0.44288  0.52276  1.0000
  C   C31       1.0  0.00927  0.45998  0.63103  1.0000
  C   C32       1.0  0.99073  0.54002  0.36898  1.0000
  C   C33       1.0  0.95335  0.48670  0.76065  1.0000
  C   C34       1.0  0.04665  0.51330  0.23935  1.0000
  C   C35       1.0  0.30154  0.67764  0.46716  1.0000
  C   C36       1.0  0.69846  0.32236  0.53285  1.0000
  N   N1        1.0  0.71103  0.81749  0.80308  1.0000
  N   N2        1.0  0.28897  0.18250  0.19692  1.0000
  N   N3        1.0  0.69728  0.76606  0.03523  1.0000
  N   N4        1.0  0.30272  0.23394  0.96476  1.0000
  O   O1        1.0  0.34657  0.60693  0.83504  1.0000
  O   O2        1.0  0.65343  0.39308  0.16496  1.0000
  O   O3        1.0  0.49282  0.57190  0.67778  1.0000
  O   O4        1.0  0.50718  0.42810  0.32222  1.0000
  O   O5        1.0  0.69194  0.47017  0.93755  1.0000
  O   O6        1.0  0.30805  0.52983  0.06244  1.0000
  O   O7        1.0  0.94655  0.39577  0.82459  1.0000
  O   O8        1.0  0.05345  0.60422  0.17541  1.0000
  O   O9        1.0  0.90291  0.59817  0.78690  1.0000
  O   O10       1.0  0.09710  0.40183  0.21311  1.0000
  O   O11       1.0  0.27009  0.78487  0.50837  1.0000
  O   O12       1.0  0.72991  0.21513  0.49164  1.0000
  O   O13       1.0  0.44347  0.66237  0.40797  1.0000
  O   O14       1.0  0.55653  0.33763  0.59203  1.0000
