data_image0
_chemical_formula_structural       Ca2B4H32C24O12
_chemical_formula_sum              "Ca2 B4 H32 C24 O12"
_cell_length_a       5.56959
_cell_length_b       7.9693
_cell_length_c       15.544
_cell_angle_alpha    99.9084
_cell_angle_beta     92.0217
_cell_angle_gamma    90.826

_space_group_name_H-M_alt    "P 1"
_space_group_IT_number       1

loop_
  _space_group_symop_operation_xyz
  'x, y, z'

loop_
  _atom_site_type_symbol
  _atom_site_label
  _atom_site_symmetry_multiplicity
  _atom_site_fract_x
  _atom_site_fract_y
  _atom_site_fract_z
  _atom_site_occupancy
  Ca  Ca1       1.0  0.98451  0.75457  0.00026  1.0000
  Ca  Ca2       1.0  0.01548  0.24543  0.99974  1.0000
  B   B1        1.0  0.85827  0.05182  0.14496  1.0000
  B   B2        1.0  0.14172  0.94819  0.85504  1.0000
  B   B3        1.0  0.72474  0.45391  0.88447  1.0000
  B   B4        1.0  0.27525  0.54609  0.11554  1.0000
  H   H1        1.0  0.58717  0.01371  0.29101  1.0000
  H   H2        1.0  0.41284  0.98629  0.70899  1.0000
  H   H3        1.0  0.66419  0.12700  0.44645  1.0000
  H   H4        1.0  0.33584  0.87300  0.55355  1.0000
  H   H5        1.0  0.02460  0.31081  0.49642  1.0000
  H   H6        1.0  0.97543  0.68919  0.50357  1.0000
  H   H7        1.0  0.31523  0.37455  0.38601  1.0000
  H   H8        1.0  0.68478  0.62545  0.61399  1.0000
  H   H9        1.0  0.24056  0.25992  0.23039  1.0000
  H   H10       1.0  0.75943  0.74009  0.76960  1.0000
  H   H11       1.0  0.73915  0.82933  0.18255  1.0000
  H   H12       1.0  0.26084  0.17067  0.81745  1.0000
  H   H13       1.0  0.23028  0.01787  0.13272  1.0000
  H   H14       1.0  0.76970  0.98213  0.86728  1.0000
  H   H15       1.0  0.58458  0.21856  0.11189  1.0000
  H   H16       1.0  0.41541  0.78144  0.88811  1.0000
  H   H17       1.0  0.34002  0.55964  0.78633  1.0000
  H   H18       1.0  0.65998  0.44036  0.21367  1.0000
  H   H19       1.0  0.18733  0.44705  0.63702  1.0000
  H   H20       1.0  0.81267  0.55295  0.36298  1.0000
  H   H21       1.0  0.41105  0.22232  0.54205  1.0000
  H   H22       1.0  0.58895  0.77767  0.45795  1.0000
  H   H23       1.0  0.78795  0.10755  0.60157  1.0000
  H   H24       1.0  0.21205  0.89244  0.39843  1.0000
  H   H25       1.0  0.92755  0.21044  0.75253  1.0000
  H   H26       1.0  0.07245  0.78956  0.24747  1.0000
  H   H27       1.0  0.08610  0.46630  0.84951  1.0000
  H   H28       1.0  0.91390  0.53370  0.15050  1.0000
  H   H29       1.0  0.51582  0.61931  0.96801  1.0000
  H   H30       1.0  0.48417  0.38069  0.03199  1.0000
  H   H31       1.0  0.52866  0.24094  0.91078  1.0000
  H   H32       1.0  0.47134  0.75906  0.08922  1.0000
  C   C1        1.0  0.74930  0.09164  0.31057  1.0000
  C   C2        1.0  0.25071  0.90836  0.68943  1.0000
  C   C3        1.0  0.79134  0.15622  0.39921  1.0000
  C   C4        1.0  0.20868  0.84377  0.60079  1.0000
  C   C5        1.0  0.99431  0.25863  0.42718  1.0000
  C   C6        1.0  0.00571  0.74137  0.57282  1.0000
  C   C7        1.0  0.15574  0.29467  0.36559  1.0000
  C   C8        1.0  0.84428  0.70533  0.63440  1.0000
  C   C9        1.0  0.11223  0.22841  0.27705  1.0000
  C   C10       1.0  0.88777  0.77159  0.72294  1.0000
  C   C11       1.0  0.90884  0.12511  0.24724  1.0000
  C   C12       1.0  0.09115  0.87490  0.75276  1.0000
  C   C13       1.0  0.43474  0.45529  0.74750  1.0000
  C   C14       1.0  0.56527  0.54471  0.25250  1.0000
  C   C15       1.0  0.35028  0.39462  0.66188  1.0000
  C   C16       1.0  0.64972  0.60538  0.33813  1.0000
  C   C17       1.0  0.47712  0.26967  0.60877  1.0000
  C   C18       1.0  0.52288  0.73032  0.39123  1.0000
  C   C19       1.0  0.68667  0.20575  0.64192  1.0000
  C   C20       1.0  0.31334  0.79424  0.35808  1.0000
  C   C21       1.0  0.76591  0.26570  0.72819  1.0000
  C   C22       1.0  0.23410  0.73430  0.27181  1.0000
  C   C23       1.0  0.64318  0.39191  0.78332  1.0000
  C   C24       1.0  0.35682  0.60809  0.21668  1.0000
  O   O1        1.0  0.72363  0.88104  0.13023  1.0000
  O   O2        1.0  0.27636  0.11897  0.86978  1.0000
  O   O3        1.0  0.08933  0.02341  0.09483  1.0000
  O   O4        1.0  0.91066  0.97658  0.90517  1.0000
  O   O5        1.0  0.73448  0.16328  0.09323  1.0000
  O   O6        1.0  0.26550  0.83672  0.90677  1.0000
  O   O7        1.0  0.99600  0.46658  0.90199  1.0000
  O   O8        1.0  0.00400  0.53342  0.09801  1.0000
  O   O9        1.0  0.63490  0.62507  0.92215  1.0000
  O   O10       1.0  0.36509  0.37493  0.07785  1.0000
  O   O11       1.0  0.64586  0.32916  0.94010  1.0000
  O   O12       1.0  0.35414  0.67084  0.05990  1.0000
