data_image0
_chemical_formula_structural       Mo2H16C20N4O6
_chemical_formula_sum              "Mo2 H16 C20 N4 O6"
_cell_length_a       7.33899
_cell_length_b       8.53748
_cell_length_c       8.53753
_cell_angle_alpha    67.2914
_cell_angle_beta     80.3569
_cell_angle_gamma    80.3569

_space_group_name_H-M_alt    "P 1"
_space_group_IT_number       1

loop_
  _space_group_symop_operation_xyz
  'x, y, z'

loop_
  _atom_site_type_symbol
  _atom_site_label
  _atom_site_symmetry_multiplicity
  _atom_site_fract_x
  _atom_site_fract_y
  _atom_site_fract_z
  _atom_site_occupancy
  Mo  Mo1       1.0  0.11295  0.84253  0.79336  1.0000
  Mo  Mo2       1.0  0.61295  0.79336  0.84253  1.0000
  H   H1        1.0  0.99447  0.24247  0.69249  1.0000
  H   H2        1.0  0.49447  0.69249  0.24247  1.0000
  H   H3        1.0  0.89825  0.47117  0.82003  1.0000
  H   H4        1.0  0.39825  0.82003  0.47117  1.0000
  H   H5        1.0  0.88268  0.38436  0.13468  1.0000
  H   H6        1.0  0.38268  0.13468  0.38436  1.0000
  H   H7        1.0  0.96749  0.07686  0.31435  1.0000
  H   H8        1.0  0.46749  0.31435  0.07686  1.0000
  H   H9        1.0  0.00240  0.82131  0.44684  1.0000
  H   H10       1.0  0.50240  0.44683  0.82131  1.0000
  H   H11       1.0  0.09018  0.51395  0.58801  1.0000
  H   H12       1.0  0.59018  0.58801  0.51395  1.0000
  H   H13       1.0  0.17813  0.32896  0.40921  1.0000
  H   H14       1.0  0.67813  0.40921  0.32896  1.0000
  H   H15       1.0  0.19602  0.47614  0.08869  1.0000
  H   H16       1.0  0.69603  0.08869  0.47614  1.0000
  C   C1        1.0  0.98530  0.21328  0.82942  1.0000
  C   C2        1.0  0.48531  0.82943  0.21328  1.0000
  C   C3        1.0  0.93230  0.33827  0.90027  1.0000
  C   C4        1.0  0.43231  0.90027  0.33827  1.0000
  C   C5        1.0  0.92369  0.28862  0.07676  1.0000
  C   C6        1.0  0.42369  0.07676  0.28862  1.0000
  C   C7        1.0  0.96725  0.11738  0.17656  1.0000
  C   C8        1.0  0.46725  0.17657  0.11737  1.0000
  C   C9        1.0  0.01412  0.99828  0.09633  1.0000
  C   C10       1.0  0.51413  0.09632  0.99827  1.0000
  C   C11       1.0  0.05615  0.81360  0.19144  1.0000
  C   C12       1.0  0.55616  0.19144  0.81360  1.0000
  C   C13       1.0  0.04489  0.74241  0.36993  1.0000
  C   C14       1.0  0.54489  0.36992  0.74242  1.0000
  C   C15       1.0  0.09195  0.56752  0.44982  1.0000
  C   C16       1.0  0.59195  0.44982  0.56752  1.0000
  C   C17       1.0  0.14523  0.46697  0.35078  1.0000
  C   C18       1.0  0.64524  0.35078  0.46697  1.0000
  C   C19       1.0  0.15381  0.54680  0.17361  1.0000
  C   C20       1.0  0.65381  0.17361  0.54680  1.0000
  N   N1        1.0  0.02383  0.04781  0.92477  1.0000
  N   N2        1.0  0.52383  0.92476  0.04782  1.0000
  N   N3        1.0  0.11074  0.71555  0.09606  1.0000
  N   N4        1.0  0.61075  0.09606  0.71555  1.0000
  O   O1        1.0  0.06632  0.99622  0.59515  1.0000
  O   O2        1.0  0.56632  0.59515  0.99622  1.0000
  O   O3        1.0  0.16777  0.64792  0.76782  1.0000
  O   O4        1.0  0.66777  0.76782  0.64792  1.0000
  O   O5        1.0  0.34763  0.88607  0.80777  1.0000
  O   O6        1.0  0.84763  0.80777  0.88607  1.0000
