data_image0
_chemical_formula_structural       Mo4H16C20N4O12
_chemical_formula_sum              "Mo4 H16 C20 N4 O12"
_cell_length_a       6.81486
_cell_length_b       9.03036
_cell_length_c       10.498
_cell_angle_alpha    99.2476
_cell_angle_beta     90.0001
_cell_angle_gamma    89.9999

_space_group_name_H-M_alt    "P 1"
_space_group_IT_number       1

loop_
  _space_group_symop_operation_xyz
  'x, y, z'

loop_
  _atom_site_type_symbol
  _atom_site_label
  _atom_site_symmetry_multiplicity
  _atom_site_fract_x
  _atom_site_fract_y
  _atom_site_fract_z
  _atom_site_occupancy
  Mo  Mo1       1.0  0.75000  0.99554  0.18506  1.0000
  Mo  Mo2       1.0  0.25000  0.00447  0.81494  1.0000
  Mo  Mo3       1.0  0.25000  0.16069  0.23560  1.0000
  Mo  Mo4       1.0  0.75000  0.83931  0.76440  1.0000
  H   H1        1.0  0.75000  0.00283  0.49123  1.0000
  H   H2        1.0  0.25000  0.99717  0.50877  1.0000
  H   H3        1.0  0.75000  0.18374  0.69892  1.0000
  H   H4        1.0  0.25000  0.81626  0.30108  1.0000
  H   H5        1.0  0.75000  0.46295  0.68848  1.0000
  H   H6        1.0  0.25000  0.53705  0.31152  1.0000
  H   H7        1.0  0.75000  0.54528  0.47667  1.0000
  H   H8        1.0  0.25000  0.45472  0.52333  1.0000
  H   H9        1.0  0.75000  0.60067  0.29385  1.0000
  H   H10       1.0  0.25000  0.39933  0.70615  1.0000
  H   H11       1.0  0.75000  0.64673  0.06730  1.0000
  H   H12       1.0  0.25000  0.35327  0.93270  1.0000
  H   H13       1.0  0.75000  0.42956  0.88845  1.0000
  H   H14       1.0  0.25000  0.57044  0.11155  1.0000
  H   H15       1.0  0.75000  0.16710  0.94420  1.0000
  H   H16       1.0  0.25000  0.83290  0.05580  1.0000
  C   C1        1.0  0.75000  0.12389  0.49233  1.0000
  C   C2        1.0  0.25000  0.87611  0.50767  1.0000
  C   C3        1.0  0.75000  0.22547  0.60725  1.0000
  C   C4        1.0  0.25000  0.77453  0.39276  1.0000
  C   C5        1.0  0.75000  0.37857  0.60155  1.0000
  C   C6        1.0  0.25000  0.62143  0.39845  1.0000
  C   C7        1.0  0.75000  0.42572  0.48156  1.0000
  C   C8        1.0  0.25000  0.57428  0.51845  1.0000
  C   C9        1.0  0.75000  0.31811  0.36988  1.0000
  C   C10       1.0  0.25000  0.68189  0.63012  1.0000
  C   C11       1.0  0.75000  0.35772  0.23893  1.0000
  C   C12       1.0  0.25000  0.64228  0.76108  1.0000
  C   C13       1.0  0.75000  0.50590  0.21544  1.0000
  C   C14       1.0  0.25000  0.49410  0.78456  1.0000
  C   C15       1.0  0.75000  0.53253  0.08849  1.0000
  C   C16       1.0  0.25000  0.46748  0.91151  1.0000
  C   C17       1.0  0.75000  0.41098  0.98813  1.0000
  C   C18       1.0  0.25000  0.58902  0.01187  1.0000
  C   C19       1.0  0.75000  0.26662  0.01808  1.0000
  C   C20       1.0  0.25000  0.73339  0.98192  1.0000
  N   N1        1.0  0.75000  0.16952  0.37670  1.0000
  N   N2        1.0  0.25000  0.83048  0.62330  1.0000
  N   N3        1.0  0.75000  0.24087  0.14051  1.0000
  N   N4        1.0  0.25000  0.75913  0.85949  1.0000
  O   O1        1.0  0.75000  0.85049  0.27264  1.0000
  O   O2        1.0  0.25000  0.14951  0.72735  1.0000
  O   O3        1.0  0.75000  0.91780  0.02313  1.0000
  O   O4        1.0  0.25000  0.08221  0.97687  1.0000
  O   O5        1.0  0.02841  0.04307  0.19998  1.0000
  O   O6        1.0  0.52841  0.95693  0.80002  1.0000
  O   O7        1.0  0.97159  0.95693  0.80002  1.0000
  O   O8        1.0  0.47159  0.04307  0.19998  1.0000
  O   O9        1.0  0.25000  0.21076  0.40063  1.0000
  O   O10       1.0  0.75000  0.78924  0.59937  1.0000
  O   O11       1.0  0.25000  0.32921  0.17870  1.0000
  O   O12       1.0  0.75000  0.67079  0.82130  1.0000
