data_image0
_chemical_formula_structural       Mg2H36C28N4O16
_chemical_formula_sum              "Mg2 H36 C28 N4 O16"
_cell_length_a       9.49725
_cell_length_b       10.0556
_cell_length_c       10.0556
_cell_angle_alpha    72.4911
_cell_angle_beta     71.1907
_cell_angle_gamma    71.1905

_space_group_name_H-M_alt    "P 1"
_space_group_IT_number       1

loop_
  _space_group_symop_operation_xyz
  'x, y, z'

loop_
  _atom_site_type_symbol
  _atom_site_label
  _atom_site_symmetry_multiplicity
  _atom_site_fract_x
  _atom_site_fract_y
  _atom_site_fract_z
  _atom_site_occupancy
  Mg  Mg1       1.0  0.50000  0.00000  1.00000  1.0000
  Mg  Mg2       1.0  0.00000  0.00000  0.00000  1.0000
  H   H1        1.0  0.36002  0.31102  0.13936  1.0000
  H   H2        1.0  0.13999  0.86064  0.68898  1.0000
  H   H3        1.0  0.63998  0.68899  0.86064  1.0000
  H   H4        1.0  0.86001  0.13936  0.31102  1.0000
  H   H5        1.0  0.18444  0.27167  0.94220  1.0000
  H   H6        1.0  0.31557  0.05779  0.72833  1.0000
  H   H7        1.0  0.81556  0.72833  0.05780  1.0000
  H   H8        1.0  0.68443  0.94220  0.27167  1.0000
  H   H9        1.0  0.39454  0.56067  0.61082  1.0000
  H   H10       1.0  0.10547  0.38918  0.43933  1.0000
  H   H11       1.0  0.60546  0.43933  0.38918  1.0000
  H   H12       1.0  0.89453  0.61082  0.56067  1.0000
  H   H13       1.0  0.50252  0.37570  0.64724  1.0000
  H   H14       1.0  0.99749  0.35275  0.62429  1.0000
  H   H15       1.0  0.49748  0.62430  0.35276  1.0000
  H   H16       1.0  0.00251  0.64724  0.37571  1.0000
  H   H17       1.0  0.48552  0.49306  0.75666  1.0000
  H   H18       1.0  0.01449  0.24334  0.50694  1.0000
  H   H19       1.0  0.51448  0.50694  0.24334  1.0000
  H   H20       1.0  0.98551  0.75666  0.49306  1.0000
  H   H21       1.0  0.12249  0.58512  0.68857  1.0000
  H   H22       1.0  0.37751  0.31143  0.41488  1.0000
  H   H23       1.0  0.87750  0.41488  0.31143  1.0000
  H   H24       1.0  0.62249  0.68857  0.58512  1.0000
  H   H25       1.0  0.14343  0.62218  0.84292  1.0000
  H   H26       1.0  0.35658  0.15707  0.37782  1.0000
  H   H27       1.0  0.85657  0.37782  0.15708  1.0000
  H   H28       1.0  0.64342  0.84292  0.62217  1.0000
  H   H29       1.0  0.04557  0.48909  0.86367  1.0000
  H   H30       1.0  0.45444  0.13633  0.51092  1.0000
  H   H31       1.0  0.95443  0.51091  0.13634  1.0000
  H   H32       1.0  0.54556  0.86367  0.48908  1.0000
  H   H33       1.0  0.84751  0.31847  0.91831  1.0000
  H   H34       1.0  0.65249  0.08169  0.68153  1.0000
  H   H35       1.0  0.15249  0.68153  0.08169  1.0000
  H   H36       1.0  0.34751  0.91831  0.31847  1.0000
  C   C1        1.0  0.66046  0.19826  0.04532  1.0000
  C   C2        1.0  0.83955  0.95467  0.80174  1.0000
  C   C3        1.0  0.33954  0.80174  0.95468  1.0000
  C   C4        1.0  0.16045  0.04533  0.19826  1.0000
  C   C5        1.0  0.57928  0.35406  0.02221  1.0000
  C   C6        1.0  0.92072  0.97779  0.64594  1.0000
  C   C7        1.0  0.42072  0.64594  0.97780  1.0000
  C   C8        1.0  0.07928  0.02220  0.35406  1.0000
  C   C9        1.0  0.42050  0.39481  0.07928  1.0000
  C   C10       1.0  0.07950  0.92071  0.60519  1.0000
  C   C11       1.0  0.57950  0.60520  0.92072  1.0000
  C   C12       1.0  0.92050  0.07929  0.39481  1.0000
  C   C13       1.0  0.66074  0.46097  0.94131  1.0000
  C   C14       1.0  0.83927  0.05869  0.53903  1.0000
  C   C15       1.0  0.33927  0.53903  0.05869  1.0000
  C   C16       1.0  0.16073  0.94131  0.46097  1.0000
  C   C17       1.0  0.29442  0.29367  0.87217  1.0000
  C   C18       1.0  0.20558  0.12783  0.70634  1.0000
  C   C19       1.0  0.70558  0.70633  0.12783  1.0000
  C   C20       1.0  0.79442  0.87217  0.29366  1.0000
  C   C21       1.0  0.42545  0.46628  0.69500  1.0000
  C   C22       1.0  0.07455  0.30499  0.53372  1.0000
  C   C23       1.0  0.57454  0.53372  0.30500  1.0000
  C   C24       1.0  0.92545  0.69500  0.46628  1.0000
  C   C25       1.0  0.14142  0.53658  0.79698  1.0000
  C   C26       1.0  0.35858  0.20302  0.46342  1.0000
  C   C27       1.0  0.85857  0.46342  0.20302  1.0000
  C   C28       1.0  0.64142  0.79698  0.53657  1.0000
  N   N1        1.0  0.28556  0.42611  0.78850  1.0000
  N   N2        1.0  0.21445  0.21150  0.57388  1.0000
  N   N3        1.0  0.71444  0.57389  0.21150  1.0000
  N   N4        1.0  0.78555  0.78850  0.42611  1.0000
  O   O1        1.0  0.58424  0.10402  0.09716  1.0000
  O   O2        1.0  0.91577  0.90284  0.89597  1.0000
  O   O3        1.0  0.41576  0.89598  0.90284  1.0000
  O   O4        1.0  0.08423  0.09716  0.10403  1.0000
  O   O5        1.0  0.80824  0.16967  0.01095  1.0000
  O   O6        1.0  0.69176  0.98904  0.83033  1.0000
  O   O7        1.0  0.19176  0.83033  0.98905  1.0000
  O   O8        1.0  0.30824  0.01096  0.16967  1.0000
  O   O9        1.0  0.81495  0.42686  0.88263  1.0000
  O   O10       1.0  0.68505  0.11737  0.57314  1.0000
  O   O11       1.0  0.18505  0.57314  0.11738  1.0000
  O   O12       1.0  0.31495  0.88263  0.42686  1.0000
  O   O13       1.0  0.41880  0.19902  0.87057  1.0000
  O   O14       1.0  0.08121  0.12942  0.80098  1.0000
  O   O15       1.0  0.58120  0.80098  0.12943  1.0000
  O   O16       1.0  0.91879  0.87058  0.19902  1.0000
