data_image0
_chemical_formula_structural       Zn4H28C24N28
_chemical_formula_sum              "Zn4 H28 C24 N28"
_cell_length_a       6.04228
_cell_length_b       7.58718
_cell_length_c       21.2509
_cell_angle_alpha    89.9997
_cell_angle_beta     90.0002
_cell_angle_gamma    100.37

_space_group_name_H-M_alt    "P 1"
_space_group_IT_number       1

loop_
  _space_group_symop_operation_xyz
  'x, y, z'

loop_
  _atom_site_type_symbol
  _atom_site_label
  _atom_site_symmetry_multiplicity
  _atom_site_fract_x
  _atom_site_fract_y
  _atom_site_fract_z
  _atom_site_occupancy
  Zn  Zn1       1.0  0.75999  0.06431  0.01769  1.0000
  Zn  Zn2       1.0  0.24000  0.43569  0.51769  1.0000
  Zn  Zn3       1.0  0.24001  0.93569  0.98231  1.0000
  Zn  Zn4       1.0  0.75998  0.56431  0.48231  1.0000
  H   H1        1.0  0.52301  0.11722  0.13488  1.0000
  H   H2        1.0  0.47699  0.38279  0.63488  1.0000
  H   H3        1.0  0.47700  0.88279  0.86512  1.0000
  H   H4        1.0  0.52299  0.61721  0.36512  1.0000
  H   H5        1.0  0.95845  0.52280  0.24092  1.0000
  H   H6        1.0  0.04157  0.97720  0.74092  1.0000
  H   H7        1.0  0.04158  0.47720  0.75908  1.0000
  H   H8        1.0  0.95842  0.02280  0.25908  1.0000
  H   H9        1.0  0.23359  0.54578  0.15166  1.0000
  H   H10       1.0  0.76643  0.95422  0.65167  1.0000
  H   H11       1.0  0.76643  0.45421  0.84833  1.0000
  H   H12       1.0  0.23357  0.04578  0.34833  1.0000
  H   H13       1.0  0.13894  0.34962  0.05771  1.0000
  H   H14       1.0  0.86106  0.15038  0.55771  1.0000
  H   H15       1.0  0.86106  0.65038  0.94229  1.0000
  H   H16       1.0  0.13894  0.84961  0.44229  1.0000
  H   H17       1.0  0.40172  0.19051  0.23622  1.0000
  H   H18       1.0  0.59830  0.30949  0.73622  1.0000
  H   H19       1.0  0.59831  0.80949  0.76378  1.0000
  H   H20       1.0  0.40169  0.69051  0.26378  1.0000
  H   H21       1.0  0.48044  0.41995  0.25453  1.0000
  H   H22       1.0  0.51958  0.08006  0.75454  1.0000
  H   H23       1.0  0.51959  0.58006  0.74546  1.0000
  H   H24       1.0  0.48041  0.91995  0.24547  1.0000
  H   H25       1.0  0.62018  0.26362  0.29205  1.0000
  H   H26       1.0  0.37985  0.23639  0.79205  1.0000
  H   H27       1.0  0.37985  0.73639  0.70795  1.0000
  H   H28       1.0  0.62015  0.76362  0.20795  1.0000
  C   C1        1.0  0.67878  0.21414  0.14072  1.0000
  C   C2        1.0  0.32122  0.28586  0.64072  1.0000
  C   C3        1.0  0.32123  0.78586  0.85928  1.0000
  C   C4        1.0  0.67877  0.71415  0.35928  1.0000
  C   C5        1.0  0.71718  0.31702  0.19539  1.0000
  C   C6        1.0  0.28283  0.18298  0.69539  1.0000
  C   C7        1.0  0.28283  0.68298  0.80461  1.0000
  C   C8        1.0  0.71717  0.81702  0.30461  1.0000
  C   C9        1.0  0.92004  0.43970  0.19912  1.0000
  C   C10       1.0  0.07997  0.06031  0.69912  1.0000
  C   C11       1.0  0.07998  0.56030  0.80088  1.0000
  C   C12       1.0  0.92002  0.93969  0.30088  1.0000
  C   C13       1.0  0.07396  0.45290  0.14984  1.0000
  C   C14       1.0  0.92605  0.04710  0.64984  1.0000
  C   C15       1.0  0.92606  0.54710  0.85015  1.0000
  C   C16       1.0  0.07394  0.95290  0.35016  1.0000
  C   C17       1.0  0.02262  0.34451  0.09721  1.0000
  C   C18       1.0  0.97738  0.15548  0.59721  1.0000
  C   C19       1.0  0.97739  0.65548  0.90279  1.0000
  C   C20       1.0  0.02261  0.84452  0.40279  1.0000
  C   C21       1.0  0.54603  0.29588  0.24717  1.0000
  C   C22       1.0  0.45398  0.20412  0.74717  1.0000
  C   C23       1.0  0.45399  0.70412  0.75283  1.0000
  C   C24       1.0  0.54600  0.79588  0.25283  1.0000
  N   N1        1.0  0.97642  0.10284  0.94560  1.0000
  N   N2        1.0  0.02357  0.39715  0.44560  1.0000
  N   N3        1.0  0.02359  0.89716  0.05440  1.0000
  N   N4        1.0  0.97641  0.60284  0.55440  1.0000
  N   N5        1.0  0.91554  0.09702  0.89130  1.0000
  N   N6        1.0  0.08446  0.40298  0.39130  1.0000
  N   N7        1.0  0.08446  0.90298  0.10870  1.0000
  N   N8        1.0  0.91554  0.59702  0.60870  1.0000
  N   N9        1.0  0.86287  0.09172  0.83859  1.0000
  N   N10       1.0  0.13713  0.40828  0.33860  1.0000
  N   N11       1.0  0.13713  0.90829  0.16141  1.0000
  N   N12       1.0  0.86287  0.59172  0.66141  1.0000
  N   N13       1.0  0.51783  0.84344  0.02598  1.0000
  N   N14       1.0  0.48216  0.65656  0.52598  1.0000
  N   N15       1.0  0.48217  0.15656  0.97402  1.0000
  N   N16       1.0  0.51782  0.34344  0.47402  1.0000
  N   N17       1.0  0.53873  0.70218  0.04975  1.0000
  N   N18       1.0  0.46127  0.79782  0.54976  1.0000
  N   N19       1.0  0.46128  0.29781  0.95024  1.0000
  N   N20       1.0  0.53871  0.20219  0.45025  1.0000
  N   N21       1.0  0.55845  0.56716  0.07257  1.0000
  N   N22       1.0  0.44155  0.93283  0.57258  1.0000
  N   N23       1.0  0.44156  0.43284  0.92742  1.0000
  N   N24       1.0  0.55843  0.06715  0.42743  1.0000
  N   N25       1.0  0.82708  0.22751  0.09286  1.0000
  N   N26       1.0  0.17291  0.27249  0.59286  1.0000
  N   N27       1.0  0.17292  0.77249  0.90714  1.0000
  N   N28       1.0  0.82708  0.72751  0.40714  1.0000
