data_image0
_chemical_formula_structural       Mg2H36C28N4O16
_chemical_formula_sum              "Mg2 H36 C28 N4 O16"
_cell_length_a       9.50658
_cell_length_b       10.1315
_cell_length_c       10.1316
_cell_angle_alpha    70.6622
_cell_angle_beta     70.7335
_cell_angle_gamma    70.7338

_space_group_name_H-M_alt    "P 1"
_space_group_IT_number       1

loop_
  _space_group_symop_operation_xyz
  'x, y, z'

loop_
  _atom_site_type_symbol
  _atom_site_label
  _atom_site_symmetry_multiplicity
  _atom_site_fract_x
  _atom_site_fract_y
  _atom_site_fract_z
  _atom_site_occupancy
  Mg  Mg1       1.0  0.00000  0.00000  0.00000  1.0000
  Mg  Mg2       1.0  0.50000  1.00000  0.00000  1.0000
  H   H1        1.0  0.68571  0.26651  0.94115  1.0000
  H   H2        1.0  0.81430  0.05885  0.73348  1.0000
  H   H3        1.0  0.31429  0.73348  0.05885  1.0000
  H   H4        1.0  0.18570  0.94115  0.26652  1.0000
  H   H5        1.0  0.53944  0.48166  0.86823  1.0000
  H   H6        1.0  0.96057  0.13177  0.51833  1.0000
  H   H7        1.0  0.46056  0.51834  0.13177  1.0000
  H   H8        1.0  0.03943  0.86823  0.48167  1.0000
  H   H9        1.0  0.61024  0.59183  0.69650  1.0000
  H   H10       1.0  0.88976  0.30350  0.40817  1.0000
  H   H11       1.0  0.38976  0.40817  0.30350  1.0000
  H   H12       1.0  0.11024  0.69650  0.59183  1.0000
  H   H13       1.0  0.63153  0.61573  0.85490  1.0000
  H   H14       1.0  0.86847  0.14510  0.38426  1.0000
  H   H15       1.0  0.36847  0.38427  0.14510  1.0000
  H   H16       1.0  0.13153  0.85490  0.61574  1.0000
  H   H17       1.0  0.96142  0.52325  0.74979  1.0000
  H   H18       1.0  0.53858  0.25021  0.47675  1.0000
  H   H19       1.0  0.03858  0.47675  0.25021  1.0000
  H   H20       1.0  0.46141  0.74979  0.52325  1.0000
  H   H21       1.0  0.88176  0.56271  0.60001  1.0000
  H   H22       1.0  0.61824  0.39999  0.43729  1.0000
  H   H23       1.0  0.11824  0.43729  0.39999  1.0000
  H   H24       1.0  0.38176  0.60001  0.56271  1.0000
  H   H25       1.0  0.00265  0.38651  0.65813  1.0000
  H   H26       1.0  0.49736  0.34187  0.61349  1.0000
  H   H27       1.0  0.99735  0.61349  0.34187  1.0000
  H   H28       1.0  0.50264  0.65813  0.38651  1.0000
  H   H29       1.0  0.64419  0.85941  0.68794  1.0000
  H   H30       1.0  0.85582  0.31206  0.14059  1.0000
  H   H31       1.0  0.35581  0.14059  0.31206  1.0000
  H   H32       1.0  0.14419  0.68794  0.85941  1.0000
  H   H33       1.0  0.15531  0.08669  0.68541  1.0000
  H   H34       1.0  0.34469  0.31459  0.91331  1.0000
  H   H35       1.0  0.84469  0.91331  0.31459  1.0000
  H   H36       1.0  0.65531  0.68541  0.08669  1.0000
  C   C1        1.0  0.79398  0.29330  0.87003  1.0000
  C   C2        1.0  0.70603  0.12997  0.70669  1.0000
  C   C3        1.0  0.20602  0.70670  0.12997  1.0000
  C   C4        1.0  0.29397  0.87003  0.29330  1.0000
  C   C5        1.0  0.63211  0.53527  0.80358  1.0000
  C   C6        1.0  0.86789  0.19642  0.46472  1.0000
  C   C7        1.0  0.36789  0.46473  0.19642  1.0000
  C   C8        1.0  0.13211  0.80358  0.53528  1.0000
  C   C9        1.0  0.91453  0.47827  0.69317  1.0000
  C   C10       1.0  0.58548  0.30683  0.52173  1.0000
  C   C11       1.0  0.08547  0.52173  0.30683  1.0000
  C   C12       1.0  0.41452  0.69317  0.47827  1.0000
  C   C13       1.0  0.34490  0.95572  0.80372  1.0000
  C   C14       1.0  0.15510  0.19628  0.04428  1.0000
  C   C15       1.0  0.65510  0.04428  0.19628  1.0000
  C   C16       1.0  0.84490  0.80372  0.95572  1.0000
  C   C17       1.0  0.58186  0.92012  0.60468  1.0000
  C   C18       1.0  0.91814  0.39532  0.07988  1.0000
  C   C19       1.0  0.41814  0.07988  0.39532  1.0000
  C   C20       1.0  0.08186  0.60468  0.92012  1.0000
  C   C21       1.0  0.42345  0.97890  0.64699  1.0000
  C   C22       1.0  0.07655  0.35301  0.02109  1.0000
  C   C23       1.0  0.57655  0.02110  0.35301  1.0000
  C   C24       1.0  0.92345  0.64699  0.97891  1.0000
  C   C25       1.0  0.33979  0.06059  0.54063  1.0000
  C   C26       1.0  0.16021  0.45938  0.93941  1.0000
  C   C27       1.0  0.66021  0.93941  0.45937  1.0000
  C   C28       1.0  0.83979  0.54063  0.06059  1.0000
  N   N1        1.0  0.77943  0.42902  0.78867  1.0000
  N   N2        1.0  0.72057  0.21133  0.57098  1.0000
  N   N3        1.0  0.22057  0.57098  0.21133  1.0000
  N   N4        1.0  0.27943  0.78867  0.42902  1.0000
  O   O1        1.0  0.19700  0.99324  0.83494  1.0000
  O   O2        1.0  0.30300  0.16506  0.00675  1.0000
  O   O3        1.0  0.80300  0.00676  0.16506  1.0000
  O   O4        1.0  0.69700  0.83494  0.99325  1.0000
  O   O5        1.0  0.42395  0.90035  0.89633  1.0000
  O   O6        1.0  0.07605  0.10367  0.09964  1.0000
  O   O7        1.0  0.57605  0.09965  0.10367  1.0000
  O   O8        1.0  0.92395  0.89633  0.90036  1.0000
  O   O9        1.0  0.92041  0.20077  0.86574  1.0000
  O   O10       1.0  0.57960  0.13426  0.79923  1.0000
  O   O11       1.0  0.07959  0.79923  0.13426  1.0000
  O   O12       1.0  0.42040  0.86574  0.20077  1.0000
  O   O13       1.0  0.18612  0.12151  0.57622  1.0000
  O   O14       1.0  0.31388  0.42379  0.87849  1.0000
  O   O15       1.0  0.81388  0.87849  0.42379  1.0000
  O   O16       1.0  0.68612  0.57621  0.12151  1.0000
