data_image0
_chemical_formula_structural       Zn4H36C20N4O12
_chemical_formula_sum              "Zn4 H36 C20 N4 O12"
_cell_length_a       6.57384
_cell_length_b       7.57217
_cell_length_c       12.9813
_cell_angle_alpha    90.0002
_cell_angle_beta     89.9999
_cell_angle_gamma    106.989

_space_group_name_H-M_alt    "P 1"
_space_group_IT_number       1

loop_
  _space_group_symop_operation_xyz
  'x, y, z'

loop_
  _atom_site_type_symbol
  _atom_site_label
  _atom_site_symmetry_multiplicity
  _atom_site_fract_x
  _atom_site_fract_y
  _atom_site_fract_z
  _atom_site_occupancy
  Zn  Zn1       1.0  0.11096  0.55967  0.78466  1.0000
  Zn  Zn2       1.0  0.38904  0.44032  0.28466  1.0000
  Zn  Zn3       1.0  0.88904  0.44034  0.21534  1.0000
  Zn  Zn4       1.0  0.61095  0.55967  0.71534  1.0000
  H   H1        1.0  0.43703  0.82779  0.90674  1.0000
  H   H2        1.0  0.06296  0.17221  0.40674  1.0000
  H   H3        1.0  0.56297  0.17222  0.09325  1.0000
  H   H4        1.0  0.93703  0.82778  0.59326  1.0000
  H   H5        1.0  0.30897  0.89479  0.01494  1.0000
  H   H6        1.0  0.19103  0.10520  0.51494  1.0000
  H   H7        1.0  0.69103  0.10521  0.98506  1.0000
  H   H8        1.0  0.80897  0.89478  0.48506  1.0000
  H   H9        1.0  0.26866  0.59948  0.07735  1.0000
  H   H10       1.0  0.23133  0.40052  0.57735  1.0000
  H   H11       1.0  0.73134  0.40053  0.92265  1.0000
  H   H12       1.0  0.76866  0.59947  0.42265  1.0000
  H   H13       1.0  0.36730  0.52361  0.96195  1.0000
  H   H14       1.0  0.13270  0.47639  0.46195  1.0000
  H   H15       1.0  0.63270  0.47640  0.03805  1.0000
  H   H16       1.0  0.86730  0.52360  0.53805  1.0000
  H   H17       1.0  0.85149  0.73909  0.93794  1.0000
  H   H18       1.0  0.64851  0.26091  0.43794  1.0000
  H   H19       1.0  0.14851  0.26092  0.06206  1.0000
  H   H20       1.0  0.35149  0.73908  0.56206  1.0000
  H   H21       1.0  0.96437  0.72591  0.06226  1.0000
  H   H22       1.0  0.53562  0.27409  0.56226  1.0000
  H   H23       1.0  0.03563  0.27410  0.93774  1.0000
  H   H24       1.0  0.46437  0.72590  0.43774  1.0000
  H   H25       1.0  0.32811  0.12096  0.88658  1.0000
  H   H26       1.0  0.17188  0.87904  0.38657  1.0000
  H   H27       1.0  0.67189  0.87905  0.11343  1.0000
  H   H28       1.0  0.82811  0.12095  0.61343  1.0000
  H   H29       1.0  0.05977  0.99031  0.88867  1.0000
  H   H30       1.0  0.44022  0.00968  0.38867  1.0000
  H   H31       1.0  0.94023  0.00970  0.11133  1.0000
  H   H32       1.0  0.55977  0.99030  0.61134  1.0000
  H   H33       1.0  0.78473  0.30772  0.75278  1.0000
  H   H34       1.0  0.71527  0.69228  0.25278  1.0000
  H   H35       1.0  0.21530  0.69228  0.24722  1.0000
  H   H36       1.0  0.28472  0.30771  0.74722  1.0000
  C   C1        1.0  0.22332  0.96121  0.75216  1.0000
  C   C2        1.0  0.27669  0.03880  0.25216  1.0000
  C   C3        1.0  0.77667  0.03880  0.24784  1.0000
  C   C4        1.0  0.72333  0.96120  0.74784  1.0000
  C   C5        1.0  0.28557  0.84333  0.93503  1.0000
  C   C6        1.0  0.21443  0.15667  0.43503  1.0000
  C   C7        1.0  0.71444  0.15668  0.06497  1.0000
  C   C8        1.0  0.78556  0.84332  0.56497  1.0000
  C   C9        1.0  0.22395  0.53451  0.00131  1.0000
  C   C10       1.0  0.27605  0.46549  0.50131  1.0000
  C   C11       1.0  0.77605  0.46550  0.99869  1.0000
  C   C12       1.0  0.72394  0.53450  0.49869  1.0000
  C   C13       1.0  0.92786  0.65802  0.98640  1.0000
  C   C14       1.0  0.57214  0.34198  0.48640  1.0000
  C   C15       1.0  0.07214  0.34198  0.01360  1.0000
  C   C16       1.0  0.42786  0.65801  0.51360  1.0000
  C   C17       1.0  0.22015  0.98366  0.86874  1.0000
  C   C18       1.0  0.27984  0.01634  0.36874  1.0000
  C   C19       1.0  0.77985  0.01634  0.13126  1.0000
  C   C20       1.0  0.72015  0.98365  0.63126  1.0000
  N   N1        1.0  0.13083  0.65432  0.93766  1.0000
  N   N2        1.0  0.36916  0.34568  0.43766  1.0000
  N   N3        1.0  0.86917  0.34569  0.06234  1.0000
  N   N4        1.0  0.63083  0.65431  0.56234  1.0000
  O   O1        1.0  0.21092  0.80207  0.71257  1.0000
  O   O2        1.0  0.28907  0.19793  0.21257  1.0000
  O   O3        1.0  0.78907  0.19793  0.28743  1.0000
  O   O4        1.0  0.71092  0.80206  0.78743  1.0000
  O   O5        1.0  0.83346  0.43900  0.72815  1.0000
  O   O6        1.0  0.66653  0.56101  0.22815  1.0000
  O   O7        1.0  0.16654  0.56101  0.27185  1.0000
  O   O8        1.0  0.33346  0.43899  0.77185  1.0000
  O   O9        1.0  0.23588  0.09997  0.69627  1.0000
  O   O10       1.0  0.26417  0.90004  0.19627  1.0000
  O   O11       1.0  0.76411  0.90004  0.30373  1.0000
  O   O12       1.0  0.73590  0.09997  0.80373  1.0000
