data_image0
_chemical_formula_structural       Cd4H40C20N8O24
_chemical_formula_sum              "Cd4 H40 C20 N8 O24"
_cell_length_a       8.15559
_cell_length_b       8.15558
_cell_length_c       14.023
_cell_angle_alpha    83.9706
_cell_angle_beta     83.9706
_cell_angle_gamma    73.2495

_space_group_name_H-M_alt    "P 1"
_space_group_IT_number       1

loop_
  _space_group_symop_operation_xyz
  'x, y, z'

loop_
  _atom_site_type_symbol
  _atom_site_label
  _atom_site_symmetry_multiplicity
  _atom_site_fract_x
  _atom_site_fract_y
  _atom_site_fract_z
  _atom_site_occupancy
  Cd  Cd1       1.0  0.94975  0.78277  0.33147  1.0000
  Cd  Cd2       1.0  0.21723  0.05025  0.16853  1.0000
  Cd  Cd3       1.0  0.05025  0.21723  0.66853  1.0000
  Cd  Cd4       1.0  0.78277  0.94975  0.83147  1.0000
  H   H1        1.0  0.43902  0.78737  0.46884  1.0000
  H   H2        1.0  0.21263  0.56098  0.03116  1.0000
  H   H3        1.0  0.56098  0.21263  0.53116  1.0000
  H   H4        1.0  0.78737  0.43902  0.96884  1.0000
  H   H5        1.0  0.43148  0.60600  0.41448  1.0000
  H   H6        1.0  0.39400  0.56852  0.08552  1.0000
  H   H7        1.0  0.56852  0.39400  0.58552  1.0000
  H   H8        1.0  0.60599  0.43148  0.91448  1.0000
  H   H9        1.0  0.24670  0.66713  0.57321  1.0000
  H   H10       1.0  0.33287  0.75330  0.92679  1.0000
  H   H11       1.0  0.75330  0.33287  0.42679  1.0000
  H   H12       1.0  0.66713  0.24670  0.07321  1.0000
  H   H13       1.0  0.12397  0.86191  0.51635  1.0000
  H   H14       1.0  0.13809  0.87603  0.98365  1.0000
  H   H15       1.0  0.87603  0.13809  0.48365  1.0000
  H   H16       1.0  0.86191  0.12398  0.01635  1.0000
  H   H17       1.0  0.24528  0.40291  0.52558  1.0000
  H   H18       1.0  0.59709  0.75472  0.97442  1.0000
  H   H19       1.0  0.75472  0.59709  0.47442  1.0000
  H   H20       1.0  0.40291  0.24528  0.02557  1.0000
  H   H21       1.0  0.26785  0.45007  0.39883  1.0000
  H   H22       1.0  0.54993  0.73215  0.10116  1.0000
  H   H23       1.0  0.73215  0.54993  0.60117  1.0000
  H   H24       1.0  0.45007  0.26785  0.89883  1.0000
  H   H25       1.0  0.87186  0.77999  0.56241  1.0000
  H   H26       1.0  0.22001  0.12814  0.93759  1.0000
  H   H27       1.0  0.12814  0.22001  0.43759  1.0000
  H   H28       1.0  0.77999  0.87186  0.06241  1.0000
  H   H29       1.0  0.00851  0.59766  0.62218  1.0000
  H   H30       1.0  0.40234  0.99149  0.87781  1.0000
  H   H31       1.0  0.99149  0.40234  0.37782  1.0000
  H   H32       1.0  0.59766  0.00851  0.12218  1.0000
  H   H33       1.0  0.78024  0.58360  0.24362  1.0000
  H   H34       1.0  0.41640  0.21976  0.25639  1.0000
  H   H35       1.0  0.21976  0.41640  0.75638  1.0000
  H   H36       1.0  0.58360  0.78024  0.74362  1.0000
  H   H37       1.0  0.63009  0.72814  0.29212  1.0000
  H   H38       1.0  0.27186  0.36991  0.20788  1.0000
  H   H39       1.0  0.36991  0.27186  0.70788  1.0000
  H   H40       1.0  0.72814  0.63009  0.79212  1.0000
  C   C1        1.0  0.31196  0.84648  0.34127  1.0000
  C   C2        1.0  0.15351  0.68804  0.15873  1.0000
  C   C3        1.0  0.68804  0.15352  0.65873  1.0000
  C   C4        1.0  0.84648  0.31196  0.84127  1.0000
  C   C5        1.0  0.35357  0.73446  0.43311  1.0000
  C   C6        1.0  0.26553  0.64643  0.06689  1.0000
  C   C7        1.0  0.64643  0.26553  0.56689  1.0000
  C   C8        1.0  0.73446  0.35357  0.93311  1.0000
  C   C9        1.0  0.20005  0.73027  0.50375  1.0000
  C   C10       1.0  0.26973  0.79995  0.99625  1.0000
  C   C11       1.0  0.79995  0.26973  0.49625  1.0000
  C   C12       1.0  0.73027  0.20005  0.00375  1.0000
  C   C13       1.0  0.17446  0.45735  0.46141  1.0000
  C   C14       1.0  0.54265  0.82554  0.03859  1.0000
  C   C15       1.0  0.82554  0.54266  0.53859  1.0000
  C   C16       1.0  0.45735  0.17446  0.96141  1.0000
  C   C17       1.0  0.94583  0.64572  0.55479  1.0000
  C   C18       1.0  0.35428  0.05417  0.94521  1.0000
  C   C19       1.0  0.05417  0.35428  0.44521  1.0000
  C   C20       1.0  0.64572  0.94583  0.05479  1.0000
  N   N1        1.0  0.08106  0.64005  0.47422  1.0000
  N   N2        1.0  0.35995  0.91894  0.02578  1.0000
  N   N3        1.0  0.91894  0.35995  0.52578  1.0000
  N   N4        1.0  0.64005  0.08106  0.97422  1.0000
  N   N5        1.0  0.64296  0.05886  0.35539  1.0000
  N   N6        1.0  0.94114  0.35704  0.14461  1.0000
  N   N7        1.0  0.35704  0.94114  0.64461  1.0000
  N   N8        1.0  0.05886  0.64296  0.85539  1.0000
  O   O1        1.0  0.42976  0.84500  0.27372  1.0000
  O   O2        1.0  0.15499  0.57024  0.22628  1.0000
  O   O3        1.0  0.57024  0.15500  0.72628  1.0000
  O   O4        1.0  0.84500  0.42976  0.77372  1.0000
  O   O5        1.0  0.15867  0.94340  0.33233  1.0000
  O   O6        1.0  0.05660  0.84134  0.16767  1.0000
  O   O7        1.0  0.84133  0.05660  0.66767  1.0000
  O   O8        1.0  0.94340  0.15867  0.83233  1.0000
  O   O9        1.0  0.70624  0.95924  0.42736  1.0000
  O   O10       1.0  0.04075  0.29377  0.07264  1.0000
  O   O11       1.0  0.29377  0.04075  0.57264  1.0000
  O   O12       1.0  0.95925  0.70623  0.92736  1.0000
  O   O13       1.0  0.72377  0.03998  0.27317  1.0000
  O   O14       1.0  0.96002  0.27624  0.22683  1.0000
  O   O15       1.0  0.27624  0.96001  0.72683  1.0000
  O   O16       1.0  0.03998  0.72377  0.77317  1.0000
  O   O17       1.0  0.50213  0.17304  0.36701  1.0000
  O   O18       1.0  0.82696  0.49787  0.13299  1.0000
  O   O19       1.0  0.49787  0.82696  0.63299  1.0000
  O   O20       1.0  0.17305  0.50214  0.86701  1.0000
  O   O21       1.0  0.74778  0.64913  0.30205  1.0000
  O   O22       1.0  0.35087  0.25222  0.19795  1.0000
  O   O23       1.0  0.25222  0.35087  0.69795  1.0000
  O   O24       1.0  0.64913  0.74778  0.80205  1.0000
