data_image0
_chemical_formula_structural       Cu4H44C32N12
_chemical_formula_sum              "Cu4 H44 C32 N12"
_cell_length_a       8.85673
_cell_length_b       10.02
_cell_length_c       10.7946
_cell_angle_alpha    90.0001
_cell_angle_beta     89.999
_cell_angle_gamma    111.13

_space_group_name_H-M_alt    "P 1"
_space_group_IT_number       1

loop_
  _space_group_symop_operation_xyz
  'x, y, z'

loop_
  _atom_site_type_symbol
  _atom_site_label
  _atom_site_symmetry_multiplicity
  _atom_site_fract_x
  _atom_site_fract_y
  _atom_site_fract_z
  _atom_site_occupancy
  Cu  Cu1       1.0  0.21395  0.23500  0.34710  1.0000
  Cu  Cu2       1.0  0.28604  0.76499  0.84709  1.0000
  Cu  Cu3       1.0  0.78605  0.76500  0.65290  1.0000
  Cu  Cu4       1.0  0.71396  0.23500  0.15291  1.0000
  H   H1        1.0  0.39295  0.48580  0.77572  1.0000
  H   H2        1.0  0.10704  0.51420  0.27572  1.0000
  H   H3        1.0  0.60704  0.51419  0.22429  1.0000
  H   H4        1.0  0.89296  0.48581  0.72428  1.0000
  H   H5        1.0  0.35819  0.08511  0.82033  1.0000
  H   H6        1.0  0.14181  0.91489  0.32033  1.0000
  H   H7        1.0  0.64181  0.91488  0.17967  1.0000
  H   H8        1.0  0.85819  0.08512  0.67967  1.0000
  H   H9        1.0  0.42532  0.24890  0.90487  1.0000
  H   H10       1.0  0.07467  0.75110  0.40487  1.0000
  H   H11       1.0  0.57468  0.75109  0.09513  1.0000
  H   H12       1.0  0.92533  0.24891  0.59513  1.0000
  H   H13       1.0  0.55944  0.20686  0.80401  1.0000
  H   H14       1.0  0.94056  0.79315  0.30401  1.0000
  H   H15       1.0  0.44056  0.79314  0.19599  1.0000
  H   H16       1.0  0.05944  0.20685  0.69599  1.0000
  H   H17       1.0  0.14612  0.48325  0.48055  1.0000
  H   H18       1.0  0.35389  0.51675  0.98054  1.0000
  H   H19       1.0  0.85388  0.51675  0.51946  1.0000
  H   H20       1.0  0.64611  0.48325  0.01946  1.0000
  H   H21       1.0  0.35286  0.58772  0.45550  1.0000
  H   H22       1.0  0.14715  0.41228  0.95550  1.0000
  H   H23       1.0  0.64715  0.41228  0.54451  1.0000
  H   H24       1.0  0.85285  0.58772  0.04451  1.0000
  H   H25       1.0  0.25802  0.60569  0.59683  1.0000
  H   H26       1.0  0.24197  0.39431  0.09683  1.0000
  H   H27       1.0  0.74198  0.39431  0.40318  1.0000
  H   H28       1.0  0.75803  0.60570  0.90318  1.0000
  H   H29       1.0  0.25551  0.03893  0.47919  1.0000
  H   H30       1.0  0.24449  0.96107  0.97918  1.0000
  H   H31       1.0  0.74448  0.96107  0.52081  1.0000
  H   H32       1.0  0.75552  0.03893  0.02082  1.0000
  H   H33       1.0  0.28170  0.99008  0.63268  1.0000
  H   H34       1.0  0.21830  0.00992  0.13267  1.0000
  H   H35       1.0  0.71831  0.00992  0.36732  1.0000
  H   H36       1.0  0.78170  0.99008  0.86732  1.0000
  H   H37       1.0  0.55916  0.15673  0.45729  1.0000
  H   H38       1.0  0.94085  0.84327  0.95729  1.0000
  H   H39       1.0  0.44084  0.84327  0.54270  1.0000
  H   H40       1.0  0.05916  0.15673  0.04270  1.0000
  H   H41       1.0  0.58228  0.09785  0.60880  1.0000
  H   H42       1.0  0.91772  0.90215  0.10880  1.0000
  H   H43       1.0  0.41772  0.90215  0.39119  1.0000
  H   H44       1.0  0.08228  0.09785  0.89119  1.0000
  C   C1        1.0  0.38147  0.27137  0.71269  1.0000
  C   C2        1.0  0.11853  0.72863  0.21269  1.0000
  C   C3        1.0  0.61853  0.72863  0.28731  1.0000
  C   C4        1.0  0.88148  0.27137  0.78731  1.0000
  C   C5        1.0  0.36665  0.40490  0.70421  1.0000
  C   C6        1.0  0.13335  0.59511  0.20420  1.0000
  C   C7        1.0  0.63335  0.59510  0.29580  1.0000
  C   C8        1.0  0.86665  0.40490  0.79579  1.0000
  C   C9        1.0  0.30974  0.41373  0.58385  1.0000
  C   C10       1.0  0.19026  0.58627  0.08385  1.0000
  C   C11       1.0  0.69026  0.58627  0.41616  1.0000
  C   C12       1.0  0.80974  0.41373  0.91616  1.0000
  C   C13       1.0  0.43351  0.19943  0.81584  1.0000
  C   C14       1.0  0.06649  0.80057  0.31584  1.0000
  C   C15       1.0  0.56650  0.80056  0.18416  1.0000
  C   C16       1.0  0.93351  0.19944  0.68416  1.0000
  C   C17       1.0  0.26467  0.52922  0.52634  1.0000
  C   C18       1.0  0.23533  0.47079  0.02633  1.0000
  C   C19       1.0  0.73533  0.47078  0.47367  1.0000
  C   C20       1.0  0.76467  0.52922  0.97367  1.0000
  C   C21       1.0  0.33641  0.06936  0.55985  1.0000
  C   C22       1.0  0.16359  0.93064  0.05984  1.0000
  C   C23       1.0  0.66358  0.93064  0.44015  1.0000
  C   C24       1.0  0.83642  0.06936  0.94015  1.0000
  C   C25       1.0  0.50458  0.07211  0.52594  1.0000
  C   C26       1.0  0.99542  0.92789  0.02595  1.0000
  C   C27       1.0  0.49542  0.92789  0.47405  1.0000
  C   C28       1.0  0.00458  0.07212  0.97405  1.0000
  C   C29       1.0  0.51350  0.21780  0.21405  1.0000
  C   C30       1.0  0.98649  0.78220  0.71404  1.0000
  C   C31       1.0  0.48649  0.78220  0.78594  1.0000
  C   C32       1.0  0.01349  0.21781  0.28596  1.0000
  N   N1        1.0  0.33601  0.20745  0.60036  1.0000
  N   N2        1.0  0.16399  0.79255  0.10036  1.0000
  N   N3        1.0  0.66399  0.79254  0.39964  1.0000
  N   N4        1.0  0.83602  0.20746  0.89964  1.0000
  N   N5        1.0  0.29246  0.29291  0.52082  1.0000
  N   N6        1.0  0.20754  0.70709  0.02082  1.0000
  N   N7        1.0  0.70753  0.70708  0.47918  1.0000
  N   N8        1.0  0.79247  0.29292  0.97918  1.0000
  N   N9        1.0  0.39086  0.21139  0.26109  1.0000
  N   N10       1.0  0.10914  0.78860  0.76108  1.0000
  N   N11       1.0  0.60914  0.78861  0.73891  1.0000
  N   N12       1.0  0.89086  0.21140  0.23892  1.0000
