data_image0
_chemical_formula_structural       Ag4H16C16S2N8O8
_chemical_formula_sum              "Ag4 H16 C16 S2 N8 O8"
_cell_length_a       7.1868
_cell_length_b       7.18686
_cell_length_c       12.8249
_cell_angle_alpha    78.4602
_cell_angle_beta     78.4619
_cell_angle_gamma    62.0757

_space_group_name_H-M_alt    "P 1"
_space_group_IT_number       1

loop_
  _space_group_symop_operation_xyz
  'x, y, z'

loop_
  _atom_site_type_symbol
  _atom_site_label
  _atom_site_symmetry_multiplicity
  _atom_site_fract_x
  _atom_site_fract_y
  _atom_site_fract_z
  _atom_site_occupancy
  Ag  Ag1       1.0  0.91471  0.22908  0.96553  1.0000
  Ag  Ag2       1.0  0.77090  0.08534  0.53444  1.0000
  Ag  Ag3       1.0  0.08531  0.77092  0.03447  1.0000
  Ag  Ag4       1.0  0.22906  0.91468  0.46555  1.0000
  H   H1        1.0  0.13789  0.32533  0.11864  1.0000
  H   H2        1.0  0.67458  0.86219  0.38133  1.0000
  H   H3        1.0  0.86214  0.67464  0.88136  1.0000
  H   H4        1.0  0.32539  0.13781  0.61867  1.0000
  H   H5        1.0  0.49814  0.32001  0.11810  1.0000
  H   H6        1.0  0.67994  0.50193  0.38187  1.0000
  H   H7        1.0  0.50190  0.67995  0.88190  1.0000
  H   H8        1.0  0.32007  0.49806  0.61813  1.0000
  H   H9        1.0  0.67478  0.16378  0.80634  1.0000
  H   H10       1.0  0.83623  0.32525  0.69362  1.0000
  H   H11       1.0  0.32522  0.83623  0.19364  1.0000
  H   H12       1.0  0.16379  0.67475  0.30639  1.0000
  H   H13       1.0  0.31313  0.18219  0.80603  1.0000
  H   H14       1.0  0.81782  0.68689  0.69394  1.0000
  H   H15       1.0  0.68687  0.81781  0.19398  1.0000
  H   H16       1.0  0.18221  0.31311  0.30605  1.0000
  C   C1        1.0  0.25574  0.30058  0.04762  1.0000
  C   C2        1.0  0.69936  0.74433  0.45235  1.0000
  C   C3        1.0  0.74429  0.69939  0.95238  1.0000
  C   C4        1.0  0.30064  0.25567  0.54765  1.0000
  C   C5        1.0  0.45269  0.29436  0.04786  1.0000
  C   C6        1.0  0.70560  0.54738  0.45211  1.0000
  C   C7        1.0  0.54735  0.70562  0.95215  1.0000
  C   C8        1.0  0.29441  0.45260  0.54789  1.0000
  C   C9        1.0  0.55114  0.21189  0.87427  1.0000
  C   C10       1.0  0.78810  0.44890  0.62569  1.0000
  C   C11       1.0  0.44889  0.78810  0.12572  1.0000
  C   C12       1.0  0.21190  0.55109  0.37432  1.0000
  C   C13       1.0  0.35431  0.21952  0.87390  1.0000
  C   C14       1.0  0.78045  0.64575  0.62607  1.0000
  C   C15       1.0  0.64569  0.78046  0.12609  1.0000
  C   C16       1.0  0.21954  0.35430  0.37394  1.0000
  S   S1        1.0  0.87110  0.12890  0.25000  1.0000
  S   S2        1.0  0.12886  0.87114  0.74999  1.0000
  N   N1        1.0  0.20835  0.25989  0.96086  1.0000
  N   N2        1.0  0.74007  0.79168  0.53911  1.0000
  N   N3        1.0  0.79166  0.74008  0.03914  1.0000
  N   N4        1.0  0.25994  0.20830  0.46090  1.0000
  N   N5        1.0  0.60065  0.24820  0.96154  1.0000
  N   N6        1.0  0.75179  0.39939  0.53844  1.0000
  N   N7        1.0  0.39936  0.75179  0.03846  1.0000
  N   N8        1.0  0.24822  0.60060  0.46157  1.0000
  O   O1        1.0  0.81296  0.30460  0.15955  1.0000
  O   O2        1.0  0.69533  0.18709  0.34042  1.0000
  O   O3        1.0  0.18699  0.69542  0.84045  1.0000
  O   O4        1.0  0.30460  0.81293  0.65957  1.0000
  O   O5        1.0  0.90525  0.92663  0.21517  1.0000
  O   O6        1.0  0.07332  0.09479  0.28487  1.0000
  O   O7        1.0  0.09477  0.07339  0.78482  1.0000
  O   O8        1.0  0.92661  0.90528  0.71514  1.0000
