data_image0
_chemical_formula_structural       La2H18C9O24
_chemical_formula_sum              "La2 H18 C9 O24"
_cell_length_a       9.00291
_cell_length_b       9.0029
_cell_length_c       9.00287
_cell_angle_alpha    65.5922
_cell_angle_beta     65.5925
_cell_angle_gamma    65.5924

_space_group_name_H-M_alt    "P 1"
_space_group_IT_number       1

loop_
  _space_group_symop_operation_xyz
  'x, y, z'

loop_
  _atom_site_type_symbol
  _atom_site_label
  _atom_site_symmetry_multiplicity
  _atom_site_fract_x
  _atom_site_fract_y
  _atom_site_fract_z
  _atom_site_occupancy
  La  La1       1.0  0.77242  0.77241  0.77241  1.0000
  La  La2       1.0  0.22759  0.22759  0.22759  1.0000
  H   H1        1.0  0.67235  0.45485  0.81445  1.0000
  H   H2        1.0  0.81445  0.67235  0.45485  1.0000
  H   H3        1.0  0.45485  0.81445  0.67235  1.0000
  H   H4        1.0  0.18555  0.54515  0.32765  1.0000
  H   H5        1.0  0.54515  0.32765  0.18555  1.0000
  H   H6        1.0  0.32765  0.18555  0.54515  1.0000
  H   H7        1.0  0.78909  0.71431  0.14680  1.0000
  H   H8        1.0  0.14680  0.78909  0.71431  1.0000
  H   H9        1.0  0.71431  0.14680  0.78908  1.0000
  H   H10       1.0  0.85320  0.28569  0.21092  1.0000
  H   H11       1.0  0.28570  0.21092  0.85320  1.0000
  H   H12       1.0  0.21091  0.85320  0.28570  1.0000
  H   H13       1.0  0.96965  0.62725  0.03019  1.0000
  H   H14       1.0  0.03019  0.96965  0.62725  1.0000
  H   H15       1.0  0.62725  0.03019  0.96965  1.0000
  H   H16       1.0  0.96982  0.37275  0.03035  1.0000
  H   H17       1.0  0.37275  0.03035  0.96982  1.0000
  H   H18       1.0  0.03035  0.96981  0.37275  1.0000
  C   C1        1.0  0.46158  0.53842  0.00000  1.0000
  C   C2        1.0  0.00000  0.46158  0.53842  1.0000
  C   C3        1.0  0.53842  0.00000  0.46158  1.0000
  C   C4        1.0  0.40903  0.68083  0.08515  1.0000
  C   C5        1.0  0.08515  0.40902  0.68083  1.0000
  C   C6        1.0  0.68083  0.08515  0.40903  1.0000
  C   C7        1.0  0.91486  0.31916  0.59097  1.0000
  C   C8        1.0  0.31917  0.59098  0.91485  1.0000
  C   C9        1.0  0.59097  0.91486  0.31917  1.0000
  O   O1        1.0  0.62303  0.54003  0.88246  1.0000
  O   O2        1.0  0.88246  0.62303  0.54003  1.0000
  O   O3        1.0  0.54003  0.88246  0.62303  1.0000
  O   O4        1.0  0.11754  0.45998  0.37697  1.0000
  O   O5        1.0  0.45997  0.37697  0.11754  1.0000
  O   O6        1.0  0.37697  0.11754  0.45998  1.0000
  O   O7        1.0  0.48223  0.79718  0.00160  1.0000
  O   O8        1.0  0.00161  0.48223  0.79718  1.0000
  O   O9        1.0  0.79718  0.00161  0.48224  1.0000
  O   O10       1.0  0.99840  0.20282  0.51776  1.0000
  O   O11       1.0  0.20283  0.51777  0.99838  1.0000
  O   O12       1.0  0.51776  0.99839  0.20282  1.0000
  O   O13       1.0  0.29288  0.67528  0.22609  1.0000
  O   O14       1.0  0.22609  0.29288  0.67527  1.0000
  O   O15       1.0  0.67527  0.22609  0.29289  1.0000
  O   O16       1.0  0.77392  0.32472  0.70711  1.0000
  O   O17       1.0  0.32472  0.70712  0.77391  1.0000
  O   O18       1.0  0.70711  0.77392  0.32472  1.0000
  O   O19       1.0  0.84762  0.68213  0.03832  1.0000
  O   O20       1.0  0.03832  0.84762  0.68214  1.0000
  O   O21       1.0  0.68213  0.03832  0.84762  1.0000
  O   O22       1.0  0.96169  0.31786  0.15238  1.0000
  O   O23       1.0  0.31786  0.15238  0.96169  1.0000
  O   O24       1.0  0.15238  0.96168  0.31787  1.0000
