data_image0
_chemical_formula_structural       Zn4H16C32N32
_chemical_formula_sum              "Zn4 H16 C32 N32"
_cell_length_a       8.11283
_cell_length_b       8.75531
_cell_length_c       13.0113
_cell_angle_alpha    89.9999
_cell_angle_beta     89.9999
_cell_angle_gamma    90

_space_group_name_H-M_alt    "P 1"
_space_group_IT_number       1

loop_
  _space_group_symop_operation_xyz
  'x, y, z'

loop_
  _atom_site_type_symbol
  _atom_site_label
  _atom_site_symmetry_multiplicity
  _atom_site_fract_x
  _atom_site_fract_y
  _atom_site_fract_z
  _atom_site_occupancy
  Zn  Zn1       1.0  0.02295  0.41007  0.88170  1.0000
  Zn  Zn2       1.0  0.47705  0.58993  0.38170  1.0000
  Zn  Zn3       1.0  0.97705  0.91007  0.61830  1.0000
  Zn  Zn4       1.0  0.52295  0.08993  0.11830  1.0000
  H   H1        1.0  0.77034  0.04043  0.46749  1.0000
  H   H2        1.0  0.72966  0.95957  0.96749  1.0000
  H   H3        1.0  0.22966  0.54043  0.03251  1.0000
  H   H4        1.0  0.27034  0.45957  0.53251  1.0000
  H   H5        1.0  0.75438  0.05446  0.28156  1.0000
  H   H6        1.0  0.74562  0.94554  0.78156  1.0000
  H   H7        1.0  0.24562  0.55446  0.21844  1.0000
  H   H8        1.0  0.25438  0.44554  0.71844  1.0000
  H   H9        1.0  0.92727  0.52120  0.28870  1.0000
  H   H10       1.0  0.57273  0.47880  0.78870  1.0000
  H   H11       1.0  0.07273  0.02120  0.21130  1.0000
  H   H12       1.0  0.42728  0.97880  0.71130  1.0000
  H   H13       1.0  0.95195  0.50420  0.47953  1.0000
  H   H14       1.0  0.54805  0.49580  0.97953  1.0000
  H   H15       1.0  0.04805  0.00420  0.02047  1.0000
  H   H16       1.0  0.45195  0.99579  0.52047  1.0000
  C   C1        1.0  0.88794  0.25939  0.59758  1.0000
  C   C2        1.0  0.61206  0.74061  0.09758  1.0000
  C   C3        1.0  0.11206  0.75939  0.90242  1.0000
  C   C4        1.0  0.38794  0.24061  0.40242  1.0000
  C   C5        1.0  0.86479  0.27109  0.48667  1.0000
  C   C6        1.0  0.63521  0.72891  0.98667  1.0000
  C   C7        1.0  0.13521  0.77109  0.01333  1.0000
  C   C8        1.0  0.36479  0.22891  0.51333  1.0000
  C   C9        1.0  0.80640  0.14642  0.42990  1.0000
  C   C10       1.0  0.69360  0.85358  0.92991  1.0000
  C   C11       1.0  0.19360  0.64642  0.07009  1.0000
  C   C12       1.0  0.30640  0.35358  0.57009  1.0000
  C   C13       1.0  0.79488  0.15526  0.32355  1.0000
  C   C14       1.0  0.70512  0.84474  0.82355  1.0000
  C   C15       1.0  0.20512  0.65526  0.17645  1.0000
  C   C16       1.0  0.29488  0.34474  0.67645  1.0000
  C   C17       1.0  0.83930  0.28951  0.27191  1.0000
  C   C18       1.0  0.66070  0.71049  0.77191  1.0000
  C   C19       1.0  0.16070  0.78951  0.22809  1.0000
  C   C20       1.0  0.33930  0.21049  0.72809  1.0000
  C   C21       1.0  0.89471  0.41628  0.32893  1.0000
  C   C22       1.0  0.60529  0.58373  0.82893  1.0000
  C   C23       1.0  0.10529  0.91628  0.17107  1.0000
  C   C24       1.0  0.39471  0.08373  0.67107  1.0000
  C   C25       1.0  0.90766  0.40696  0.43514  1.0000
  C   C26       1.0  0.59233  0.59305  0.93514  1.0000
  C   C27       1.0  0.09234  0.90696  0.06486  1.0000
  C   C28       1.0  0.40766  0.09304  0.56486  1.0000
  C   C29       1.0  0.83403  0.29688  0.15991  1.0000
  C   C30       1.0  0.66598  0.70313  0.65991  1.0000
  C   C31       1.0  0.16597  0.79687  0.34009  1.0000
  C   C32       1.0  0.33403  0.20313  0.84009  1.0000
  N   N1        1.0  0.88665  0.37731  0.66299  1.0000
  N   N2        1.0  0.61335  0.62269  0.16299  1.0000
  N   N3        1.0  0.11335  0.87731  0.83701  1.0000
  N   N4        1.0  0.38665  0.12269  0.33701  1.0000
  N   N5        1.0  0.92089  0.31454  0.75478  1.0000
  N   N6        1.0  0.57911  0.68546  0.25478  1.0000
  N   N7        1.0  0.07911  0.81454  0.74522  1.0000
  N   N8        1.0  0.42089  0.18546  0.24522  1.0000
  N   N9        1.0  0.94192  0.16569  0.74854  1.0000
  N   N10       1.0  0.55808  0.83431  0.24854  1.0000
  N   N11       1.0  0.05808  0.66569  0.75146  1.0000
  N   N12       1.0  0.44192  0.33431  0.25146  1.0000
  N   N13       1.0  0.92246  0.12789  0.64978  1.0000
  N   N14       1.0  0.57754  0.87211  0.14978  1.0000
  N   N15       1.0  0.07754  0.62789  0.85022  1.0000
  N   N16       1.0  0.42246  0.37211  0.35022  1.0000
  N   N17       1.0  0.73324  0.21416  0.09731  1.0000
  N   N18       1.0  0.76676  0.78584  0.59731  1.0000
  N   N19       1.0  0.26676  0.71416  0.40269  1.0000
  N   N20       1.0  0.23324  0.28584  0.90269  1.0000
  N   N21       1.0  0.77285  0.24967  0.00048  1.0000
  N   N22       1.0  0.72716  0.75033  0.50048  1.0000
  N   N23       1.0  0.22715  0.74967  0.49952  1.0000
  N   N24       1.0  0.27285  0.25033  0.99952  1.0000
  N   N25       1.0  0.89329  0.35068  0.00595  1.0000
  N   N26       1.0  0.60671  0.64932  0.50595  1.0000
  N   N27       1.0  0.10671  0.85068  0.49405  1.0000
  N   N28       1.0  0.39329  0.14932  0.99405  1.0000
  N   N29       1.0  0.93499  0.38320  0.10306  1.0000
  N   N30       1.0  0.56501  0.61680  0.60306  1.0000
  N   N31       1.0  0.06501  0.88320  0.39694  1.0000
  N   N32       1.0  0.43499  0.11680  0.89694  1.0000
