data_image0
_chemical_formula_structural       Cd4H28C16O26
_chemical_formula_sum              "Cd4 H28 C16 O26"
_cell_length_a       7.48326
_cell_length_b       8.37696
_cell_length_c       13.2827
_cell_angle_alpha    93.9843
_cell_angle_beta     89.989
_cell_angle_gamma    116.565

_space_group_name_H-M_alt    "P 1"
_space_group_IT_number       1

loop_
  _space_group_symop_operation_xyz
  'x, y, z'

loop_
  _atom_site_type_symbol
  _atom_site_label
  _atom_site_symmetry_multiplicity
  _atom_site_fract_x
  _atom_site_fract_y
  _atom_site_fract_z
  _atom_site_occupancy
  Cd  Cd1       1.0  0.53564  0.08758  0.87153  1.0000
  Cd  Cd2       1.0  0.55230  0.08768  0.37165  1.0000
  Cd  Cd3       1.0  0.46436  0.91242  0.12847  1.0000
  Cd  Cd4       1.0  0.44770  0.91232  0.62835  1.0000
  H   H1        1.0  0.07655  0.22998  0.95134  1.0000
  H   H2        1.0  0.15424  0.23008  0.45135  1.0000
  H   H3        1.0  0.92345  0.77003  0.04866  1.0000
  H   H4        1.0  0.84576  0.76992  0.54865  1.0000
  H   H5        1.0  0.31807  0.40836  0.98004  1.0000
  H   H6        1.0  0.09132  0.40844  0.48007  1.0000
  H   H7        1.0  0.68193  0.59164  0.01996  1.0000
  H   H8        1.0  0.90868  0.59156  0.51993  1.0000
  H   H9        1.0  0.20896  0.35305  0.76217  1.0000
  H   H10       1.0  0.14506  0.35360  0.26223  1.0000
  H   H11       1.0  0.79104  0.64695  0.23783  1.0000
  H   H12       1.0  0.85494  0.64640  0.73777  1.0000
  H   H13       1.0  0.44662  0.48868  0.82554  1.0000
  H   H14       1.0  0.04280  0.48887  0.32564  1.0000
  H   H15       1.0  0.55338  0.51133  0.17447  1.0000
  H   H16       1.0  0.95719  0.51112  0.67436  1.0000
  H   H17       1.0  0.79859  0.35975  0.01452  1.0000
  H   H18       1.0  0.56131  0.35987  0.51439  1.0000
  H   H19       1.0  0.20141  0.64025  0.98548  1.0000
  H   H20       1.0  0.43869  0.64013  0.48561  1.0000
  H   H21       1.0  0.86119  0.44617  0.90852  1.0000
  H   H22       1.0  0.58482  0.44613  0.40837  1.0000
  H   H23       1.0  0.13881  0.55383  0.09148  1.0000
  H   H24       1.0  0.41518  0.55387  0.59163  1.0000
  H   H25       1.0  0.75310  0.91975  0.79135  1.0000
  H   H26       1.0  0.16665  0.91997  0.29153  1.0000
  H   H27       1.0  0.24690  0.08025  0.20865  1.0000
  H   H28       1.0  0.83335  0.08003  0.70847  1.0000
  C   C1        1.0  0.26870  0.16244  0.03979  1.0000
  C   C2        1.0  0.89433  0.16261  0.53981  1.0000
  C   C3        1.0  0.73130  0.83757  0.96022  1.0000
  C   C4        1.0  0.10567  0.83739  0.46020  1.0000
  C   C5        1.0  0.23701  0.26421  0.95663  1.0000
  C   C6        1.0  0.02805  0.26431  0.45665  1.0000
  C   C7        1.0  0.76299  0.73579  0.04337  1.0000
  C   C8        1.0  0.97195  0.73569  0.54335  1.0000
  C   C9        1.0  0.34683  0.35335  0.79116  1.0000
  C   C10       1.0  0.00735  0.35362  0.29123  1.0000
  C   C11       1.0  0.65317  0.64666  0.20884  1.0000
  C   C12       1.0  0.99265  0.64638  0.70877  1.0000
  C   C13       1.0  0.45016  0.31002  0.70249  1.0000
  C   C14       1.0  0.86053  0.31005  0.20259  1.0000
  C   C15       1.0  0.54984  0.68998  0.29751  1.0000
  C   C16       1.0  0.13946  0.68994  0.79741  1.0000
  O   O1        1.0  0.30333  0.22203  0.86251  1.0000
  O   O2        1.0  0.91951  0.22221  0.36255  1.0000
  O   O3        1.0  0.69667  0.77797  0.13749  1.0000
  O   O4        1.0  0.08049  0.77779  0.63745  1.0000
  O   O5        1.0  0.34507  0.05467  0.01708  1.0000
  O   O6        1.0  0.71003  0.05491  0.51709  1.0000
  O   O7        1.0  0.65493  0.94533  0.98292  1.0000
  O   O8        1.0  0.28997  0.94509  0.48291  1.0000
  O   O9        1.0  0.21637  0.19230  0.12621  1.0000
  O   O10       1.0  0.97642  0.19251  0.62625  1.0000
  O   O11       1.0  0.78364  0.80770  0.87379  1.0000
  O   O12       1.0  0.02358  0.80749  0.37375  1.0000
  O   O13       1.0  0.50791  0.18930  0.71077  1.0000
  O   O14       1.0  0.68203  0.18914  0.21094  1.0000
  O   O15       1.0  0.49209  0.81070  0.28923  1.0000
  O   O16       1.0  0.31797  0.81086  0.78905  1.0000
  O   O17       1.0  0.47822  0.39926  0.62627  1.0000
  O   O18       1.0  0.92155  0.39925  0.12634  1.0000
  O   O19       1.0  0.52178  0.60074  0.37373  1.0000
  O   O20       1.0  0.07845  0.60074  0.87365  1.0000
  O   O21       1.0  0.74550  0.35939  0.94521  1.0000
  O   O22       1.0  0.61385  0.35948  0.44502  1.0000
  O   O23       1.0  0.25450  0.64061  0.05479  1.0000
  O   O24       1.0  0.38615  0.64053  0.55498  1.0000
  O   O25       1.0  0.71729  0.99978  0.74985  1.0000
  O   O26       1.0  0.28271  0.00022  0.25015  1.0000
