data_image0
_chemical_formula_structural       Zn4Mo2H18C18N14O12
_chemical_formula_sum              "Zn4 Mo2 H18 C18 N14 O12"
_cell_length_a       6.92407
_cell_length_b       6.87656
_cell_length_c       15.5185
_cell_angle_alpha    84.1951
_cell_angle_beta     80.1299
_cell_angle_gamma    71.29

_space_group_name_H-M_alt    "P 1"
_space_group_IT_number       1

loop_
  _space_group_symop_operation_xyz
  'x, y, z'

loop_
  _atom_site_type_symbol
  _atom_site_label
  _atom_site_symmetry_multiplicity
  _atom_site_fract_x
  _atom_site_fract_y
  _atom_site_fract_z
  _atom_site_occupancy
  Zn  Zn1       1.0  0.41712  0.20048  0.43574  1.0000
  Zn  Zn2       1.0  0.58288  0.79952  0.56427  1.0000
  Zn  Zn3       1.0  0.15918  0.14584  0.62520  1.0000
  Zn  Zn4       1.0  0.84082  0.85416  0.37480  1.0000
  Mo  Mo1       1.0  0.14532  0.65699  0.55130  1.0000
  Mo  Mo2       1.0  0.85468  0.34301  0.44870  1.0000
  H   H1        1.0  0.80610  0.04236  0.68073  1.0000
  H   H2        1.0  0.19390  0.95764  0.31928  1.0000
  H   H3        1.0  0.75615  0.28756  0.64274  1.0000
  H   H4        1.0  0.24385  0.71244  0.35726  1.0000
  H   H5        1.0  0.19211  0.58606  0.89861  1.0000
  H   H6        1.0  0.80789  0.41394  0.10139  1.0000
  H   H7        1.0  0.12223  0.82379  0.79525  1.0000
  H   H8        1.0  0.87777  0.17621  0.20475  1.0000
  H   H9        1.0  0.29482  0.03753  0.04454  1.0000
  H   H10       1.0  0.70518  0.96247  0.95546  1.0000
  H   H11       1.0  0.30688  0.80300  0.17607  1.0000
  H   H12       1.0  0.69311  0.19700  0.82393  1.0000
  H   H13       1.0  0.21099  0.35249  0.02810  1.0000
  H   H14       1.0  0.78901  0.64751  0.97190  1.0000
  H   H15       1.0  0.31918  0.34662  0.77680  1.0000
  H   H16       1.0  0.68082  0.65338  0.22320  1.0000
  H   H17       1.0  0.51429  0.21278  0.58850  1.0000
  H   H18       1.0  0.48571  0.78722  0.41150  1.0000
  C   C1        1.0  0.24134  0.82805  0.96337  1.0000
  C   C2        1.0  0.75866  0.17195  0.03663  1.0000
  C   C3        1.0  0.21639  0.63551  0.95917  1.0000
  C   C4        1.0  0.78361  0.36448  0.04083  1.0000
  C   C5        1.0  0.26060  0.56063  0.11202  1.0000
  C   C6        1.0  0.73940  0.43937  0.88798  1.0000
  C   C7        1.0  0.27663  0.41816  0.18889  1.0000
  C   C8        1.0  0.72337  0.58184  0.81111  1.0000
  C   C9        1.0  0.18521  0.94085  0.80904  1.0000
  C   C10       1.0  0.81479  0.05915  0.19096  1.0000
  C   C11       1.0  0.27487  0.88826  0.04131  1.0000
  C   C12       1.0  0.72513  0.11174  0.95869  1.0000
  C   C13       1.0  0.28367  0.75496  0.11505  1.0000
  C   C14       1.0  0.71633  0.24504  0.88496  1.0000
  C   C15       1.0  0.22645  0.50317  0.03304  1.0000
  C   C16       1.0  0.77355  0.49683  0.96696  1.0000
  C   C17       1.0  0.28044  0.20896  0.80270  1.0000
  C   C18       1.0  0.71957  0.79104  0.19730  1.0000
  N   N1        1.0  0.37369  0.42550  0.25661  1.0000
  N   N2        1.0  0.62631  0.57450  0.74339  1.0000
  N   N3        1.0  0.21328  0.09489  0.75435  1.0000
  N   N4        1.0  0.78672  0.90511  0.24565  1.0000
  N   N5        1.0  0.35135  0.26798  0.31034  1.0000
  N   N6        1.0  0.64865  0.73202  0.68966  1.0000
  N   N7        1.0  0.23656  0.96123  0.88709  1.0000
  N   N8        1.0  0.76344  0.03877  0.11291  1.0000
  N   N9        1.0  0.19799  0.25889  0.20091  1.0000
  N   N10       1.0  0.80201  0.74111  0.79909  1.0000
  N   N11       1.0  0.29639  0.13315  0.88398  1.0000
  N   N12       1.0  0.70361  0.86685  0.11602  1.0000
  N   N13       1.0  0.24700  0.16819  0.27745  1.0000
  N   N14       1.0  0.75300  0.83181  0.72255  1.0000
  O   O1        1.0  0.11001  0.46576  0.63069  1.0000
  O   O2        1.0  0.88999  0.53424  0.36931  1.0000
  O   O3        1.0  0.31605  0.53486  0.45936  1.0000
  O   O4        1.0  0.68395  0.46514  0.54064  1.0000
  O   O5        1.0  0.45342  0.12308  0.56558  1.0000
  O   O6        1.0  0.54658  0.87692  0.43442  1.0000
  O   O7        1.0  0.25529  0.82179  0.59673  1.0000
  O   O8        1.0  0.74471  0.17821  0.40327  1.0000
  O   O9        1.0  0.09824  0.20480  0.48350  1.0000
  O   O10       1.0  0.90176  0.79520  0.51650  1.0000
  O   O11       1.0  0.85882  0.16474  0.66347  1.0000
  O   O12       1.0  0.14118  0.83526  0.33653  1.0000
