data_image0
_chemical_formula_structural       Cd4H28C48S4N8O8
_chemical_formula_sum              "Cd4 H28 C48 S4 N8 O8"
_cell_length_a       8.84746
_cell_length_b       11.7073
_cell_length_c       12.3946
_cell_angle_alpha    93.7936
_cell_angle_beta     94.6182
_cell_angle_gamma    104.325

_space_group_name_H-M_alt    "P 1"
_space_group_IT_number       1

loop_
  _space_group_symop_operation_xyz
  'x, y, z'

loop_
  _atom_site_type_symbol
  _atom_site_label
  _atom_site_symmetry_multiplicity
  _atom_site_fract_x
  _atom_site_fract_y
  _atom_site_fract_z
  _atom_site_occupancy
  Cd  Cd1       1.0  0.37347  0.92723  0.35744  1.0000
  Cd  Cd2       1.0  0.62653  0.07278  0.64256  1.0000
  Cd  Cd3       1.0  0.32008  0.76897  0.64929  1.0000
  Cd  Cd4       1.0  0.67992  0.23103  0.35071  1.0000
  H   H1        1.0  0.29397  0.23001  0.51420  1.0000
  H   H2        1.0  0.70602  0.76999  0.48580  1.0000
  H   H3        1.0  0.96257  0.98067  0.67409  1.0000
  H   H4        1.0  0.03743  0.01933  0.32591  1.0000
  H   H5        1.0  0.09552  0.35094  0.49589  1.0000
  H   H6        1.0  0.90448  0.64907  0.50411  1.0000
  H   H7        1.0  0.81939  0.91955  0.91035  1.0000
  H   H8        1.0  0.18061  0.08044  0.08964  1.0000
  H   H9        1.0  0.25088  0.79165  0.93537  1.0000
  H   H10       1.0  0.74912  0.20835  0.06463  1.0000
  H   H11       1.0  0.71815  0.91619  0.09485  1.0000
  H   H12       1.0  0.28185  0.08381  0.90515  1.0000
  H   H13       1.0  0.56275  0.59682  0.61659  1.0000
  H   H14       1.0  0.43725  0.40319  0.38340  1.0000
  H   H15       1.0  0.92075  0.31496  0.89780  1.0000
  H   H16       1.0  0.07927  0.68504  0.10221  1.0000
  H   H17       1.0  0.15517  0.24672  0.85945  1.0000
  H   H18       1.0  0.84484  0.75328  0.14055  1.0000
  H   H19       1.0  0.60711  0.40376  0.67232  1.0000
  H   H20       1.0  0.39289  0.59624  0.32768  1.0000
  H   H21       1.0  0.77757  0.47464  0.89519  1.0000
  H   H22       1.0  0.22244  0.52535  0.10481  1.0000
  H   H23       1.0  0.96746  0.78197  0.72679  1.0000
  H   H24       1.0  0.03254  0.21802  0.27321  1.0000
  H   H25       1.0  0.75685  0.67084  0.83192  1.0000
  H   H26       1.0  0.24315  0.32915  0.16808  1.0000
  H   H27       1.0  0.40932  0.27714  0.77574  1.0000
  H   H28       1.0  0.59069  0.72287  0.22426  1.0000
  C   C1        1.0  0.25194  0.01555  0.60342  1.0000
  C   C2        1.0  0.74806  0.98445  0.39658  1.0000
  C   C3        1.0  0.14497  0.09628  0.59627  1.0000
  C   C4        1.0  0.85502  0.90373  0.40373  1.0000
  C   C5        1.0  0.18007  0.20191  0.54531  1.0000
  C   C6        1.0  0.81993  0.79809  0.45469  1.0000
  C   C7        1.0  0.99789  0.06222  0.63463  1.0000
  C   C8        1.0  0.00211  0.93778  0.36537  1.0000
  C   C9        1.0  0.07020  0.26823  0.53435  1.0000
  C   C10       1.0  0.92980  0.73177  0.46565  1.0000
  C   C11       1.0  0.92183  0.22543  0.57118  1.0000
  C   C12       1.0  0.07816  0.77458  0.42882  1.0000
  C   C13       1.0  0.40871  0.85795  0.13528  1.0000
  C   C14       1.0  0.59129  0.14206  0.86471  1.0000
  C   C15       1.0  0.58662  0.85514  0.82570  1.0000
  C   C16       1.0  0.41337  0.14487  0.17429  1.0000
  C   C17       1.0  0.69475  0.88883  0.91900  1.0000
  C   C18       1.0  0.30524  0.11117  0.08100  1.0000
  C   C19       1.0  0.37773  0.81822  0.93281  1.0000
  C   C20       1.0  0.62226  0.18178  0.06720  1.0000
  C   C21       1.0  0.63888  0.88682  0.02067  1.0000
  C   C22       1.0  0.36111  0.11318  0.97933  1.0000
  C   C23       1.0  0.47693  0.85163  0.02907  1.0000
  C   C24       1.0  0.52306  0.14837  0.97093  1.0000
  C   C25       1.0  0.11012  0.55224  0.76592  1.0000
  C   C26       1.0  0.88989  0.44776  0.23408  1.0000
  C   C27       1.0  0.24552  0.51028  0.74147  1.0000
  C   C28       1.0  0.75448  0.48972  0.25853  1.0000
  C   C29       1.0  0.47838  0.53851  0.66130  1.0000
  C   C30       1.0  0.52162  0.46150  0.33870  1.0000
  C   C31       1.0  0.99607  0.48200  0.82543  1.0000
  C   C32       1.0  0.00394  0.51799  0.17457  1.0000
  C   C33       1.0  0.01418  0.37083  0.85835  1.0000
  C   C34       1.0  0.98583  0.62917  0.14166  1.0000
  C   C35       1.0  0.26162  0.40076  0.77799  1.0000
  C   C36       1.0  0.73839  0.59924  0.22200  1.0000
  C   C37       1.0  0.14253  0.33214  0.83567  1.0000
  C   C38       1.0  0.85748  0.66786  0.16433  1.0000
  C   C39       1.0  0.50353  0.43139  0.69364  1.0000
  C   C40       1.0  0.49648  0.56861  0.30636  1.0000
  C   C41       1.0  0.86670  0.52637  0.84946  1.0000
  C   C42       1.0  0.13330  0.47363  0.15054  1.0000
  C   C43       1.0  0.97266  0.69682  0.75570  1.0000
  C   C44       1.0  0.02734  0.30317  0.24430  1.0000
  C   C45       1.0  0.85491  0.63397  0.81484  1.0000
  C   C46       1.0  0.14509  0.36602  0.18516  1.0000
  C   C47       1.0  0.39471  0.36233  0.75213  1.0000
  C   C48       1.0  0.60530  0.63767  0.24787  1.0000
  S   S1        1.0  0.63860  0.85601  0.69249  1.0000
  S   S2        1.0  0.36140  0.14399  0.30751  1.0000
  S   S3        1.0  0.76543  0.29114  0.55654  1.0000
  S   S4        1.0  0.23457  0.70886  0.44346  1.0000
  N   N1        1.0  0.89038  0.12352  0.62084  1.0000
  N   N2        1.0  0.10962  0.87648  0.37916  1.0000
  N   N3        1.0  0.43067  0.81916  0.83496  1.0000
  N   N4        1.0  0.56933  0.18084  0.16504  1.0000
  N   N5        1.0  0.35384  0.57638  0.68421  1.0000
  N   N6        1.0  0.64617  0.42363  0.31579  1.0000
  N   N7        1.0  0.09590  0.65726  0.73199  1.0000
  N   N8        1.0  0.90411  0.34274  0.26801  1.0000
  O   O1        1.0  0.37419  0.03914  0.55151  1.0000
  O   O2        1.0  0.62581  0.96085  0.44849  1.0000
  O   O3        1.0  0.50797  0.88037  0.22097  1.0000
  O   O4        1.0  0.49203  0.11965  0.77902  1.0000
  O   O5        1.0  0.20942  0.92648  0.65715  1.0000
  O   O6        1.0  0.79057  0.07352  0.34285  1.0000
  O   O7        1.0  0.26357  0.84506  0.13648  1.0000
  O   O8        1.0  0.73642  0.15494  0.86352  1.0000
