data_image0
_chemical_formula_structural       Mn2H36C44N8O10
_chemical_formula_sum              "Mn2 H36 C44 N8 O10"
_cell_length_a       10.1995
_cell_length_b       11.3076
_cell_length_c       11.6272
_cell_angle_alpha    113.557
_cell_angle_beta     114.954
_cell_angle_gamma    99.2989

_space_group_name_H-M_alt    "P 1"
_space_group_IT_number       1

loop_
  _space_group_symop_operation_xyz
  'x, y, z'

loop_
  _atom_site_type_symbol
  _atom_site_label
  _atom_site_symmetry_multiplicity
  _atom_site_fract_x
  _atom_site_fract_y
  _atom_site_fract_z
  _atom_site_occupancy
  Mn  Mn1       1.0  0.35178  0.90809  0.03876  1.0000
  Mn  Mn2       1.0  0.64822  0.09191  0.96124  1.0000
  H   H1        1.0  0.87973  0.89526  0.01079  1.0000
  H   H2        1.0  0.12027  0.10474  0.98921  1.0000
  H   H3        1.0  0.61191  0.63901  0.09275  1.0000
  H   H4        1.0  0.38810  0.36099  0.90725  1.0000
  H   H5        1.0  0.02635  0.58992  0.10266  1.0000
  H   H6        1.0  0.97366  0.41009  0.89735  1.0000
  H   H7        1.0  0.64376  0.94483  0.32355  1.0000
  H   H8        1.0  0.35623  0.05517  0.67644  1.0000
  H   H9        1.0  0.78089  0.08003  0.60315  1.0000
  H   H10       1.0  0.21911  0.91996  0.39684  1.0000
  H   H11       1.0  0.68709  0.25287  0.72083  1.0000
  H   H12       1.0  0.31292  0.74713  0.27917  1.0000
  H   H13       1.0  0.34478  0.15386  0.28046  1.0000
  H   H14       1.0  0.65523  0.84615  0.71955  1.0000
  H   H15       1.0  0.61618  0.46542  0.80960  1.0000
  H   H16       1.0  0.38383  0.53458  0.19040  1.0000
  H   H17       1.0  0.50424  0.29784  0.76129  1.0000
  H   H18       1.0  0.49577  0.70216  0.23871  1.0000
  H   H19       1.0  0.41656  0.42261  0.75232  1.0000
  H   H20       1.0  0.58344  0.57739  0.24768  1.0000
  H   H21       1.0  0.23699  0.38696  0.28560  1.0000
  H   H22       1.0  0.76301  0.61304  0.71440  1.0000
  H   H23       1.0  0.18535  0.53347  0.29397  1.0000
  H   H24       1.0  0.81466  0.46653  0.70603  1.0000
  H   H25       1.0  0.04867  0.38178  0.25261  1.0000
  H   H26       1.0  0.95133  0.61821  0.74739  1.0000
  H   H27       1.0  0.01140  0.60221  0.35779  1.0000
  H   H28       1.0  0.98859  0.39778  0.64221  1.0000
  H   H29       1.0  0.93691  0.78064  0.49631  1.0000
  H   H30       1.0  0.06308  0.21935  0.50369  1.0000
  H   H31       1.0  0.07445  0.89213  0.77343  1.0000
  H   H32       1.0  0.92554  0.10787  0.22656  1.0000
  H   H33       1.0  0.34858  0.65808  0.77618  1.0000
  H   H34       1.0  0.65141  0.34192  0.22382  1.0000
  H   H35       1.0  0.80715  0.41652  0.06849  1.0000
  H   H36       1.0  0.19285  0.58348  0.93152  1.0000
  C   C1        1.0  0.10481  0.79150  0.04476  1.0000
  C   C2        1.0  0.89518  0.20851  0.95523  1.0000
  C   C3        1.0  0.96829  0.74879  0.05851  1.0000
  C   C4        1.0  0.03171  0.25122  0.94148  1.0000
  C   C5        1.0  0.86311  0.81518  0.03874  1.0000
  C   C6        1.0  0.13689  0.18482  0.96126  1.0000
  C   C7        1.0  0.73623  0.77623  0.05342  1.0000
  C   C8        1.0  0.26377  0.22378  0.94659  1.0000
  C   C9        1.0  0.71389  0.67143  0.08649  1.0000
  C   C10       1.0  0.28611  0.32857  0.91351  1.0000
  C   C11       1.0  0.81557  0.60121  0.10085  1.0000
  C   C12       1.0  0.18444  0.39880  0.89915  1.0000
  C   C13       1.0  0.94458  0.64187  0.08912  1.0000
  C   C14       1.0  0.05543  0.35814  0.91089  1.0000
  C   C15       1.0  0.61830  0.84102  0.02592  1.0000
  C   C16       1.0  0.38170  0.15898  0.97408  1.0000
  C   C17       1.0  0.60934  0.02383  0.38095  1.0000
  C   C18       1.0  0.39066  0.97617  0.61905  1.0000
  C   C19       1.0  0.68411  0.09879  0.53506  1.0000
  C   C20       1.0  0.31589  0.90121  0.46493  1.0000
  C   C21       1.0  0.63221  0.19650  0.60041  1.0000
  C   C22       1.0  0.36779  0.80350  0.39959  1.0000
  C   C23       1.0  0.50941  0.22062  0.51002  1.0000
  C   C24       1.0  0.49059  0.77939  0.48997  1.0000
  C   C25       1.0  0.44159  0.14036  0.35547  1.0000
  C   C26       1.0  0.55841  0.85964  0.64453  1.0000
  C   C27       1.0  0.45379  0.32573  0.57556  1.0000
  C   C28       1.0  0.54622  0.67427  0.42444  1.0000
  C   C29       1.0  0.49848  0.37913  0.73279  1.0000
  C   C30       1.0  0.50153  0.62086  0.26721  1.0000
  C   C31       1.0  0.23766  0.50966  0.48107  1.0000
  C   C32       1.0  0.76233  0.49034  0.51893  1.0000
  C   C33       1.0  0.17473  0.44988  0.31911  1.0000
  C   C34       1.0  0.82527  0.55012  0.68089  1.0000
  C   C35       1.0  0.19030  0.61744  0.55680  1.0000
  C   C36       1.0  0.80969  0.38255  0.44320  1.0000
  C   C37       1.0  0.07321  0.65385  0.47844  1.0000
  C   C38       1.0  0.92678  0.34614  0.52155  1.0000
  C   C39       1.0  0.03016  0.75324  0.55548  1.0000
  C   C40       1.0  0.96983  0.24676  0.44452  1.0000
  C   C41       1.0  0.10550  0.81518  0.70874  1.0000
  C   C42       1.0  0.89449  0.18481  0.29126  1.0000
  C   C43       1.0  0.25935  0.68524  0.71179  1.0000
  C   C44       1.0  0.74065  0.31476  0.28821  1.0000
  N   N1        1.0  0.48883  0.04328  0.29241  1.0000
  N   N2        1.0  0.51117  0.95671  0.70759  1.0000
  N   N3        1.0  0.37139  0.36860  0.49182  1.0000
  N   N4        1.0  0.62861  0.63140  0.50818  1.0000
  N   N5        1.0  0.33001  0.47105  0.56335  1.0000
  N   N6        1.0  0.66999  0.52895  0.43665  1.0000
  N   N7        1.0  0.21932  0.78183  0.78617  1.0000
  N   N8        1.0  0.78067  0.21817  0.21383  1.0000
  O   O1        1.0  0.19527  0.72414  0.05141  1.0000
  O   O2        1.0  0.80473  0.27587  0.94858  1.0000
  O   O3        1.0  0.13095  0.89643  0.02914  1.0000
  O   O4        1.0  0.86904  0.10358  0.97085  1.0000
  O   O5        1.0  0.61583  0.90642  0.95850  1.0000
  O   O6        1.0  0.38417  0.09358  0.04151  1.0000
  O   O7        1.0  0.52356  0.82380  0.06825  1.0000
  O   O8        1.0  0.47644  0.17619  0.93175  1.0000
  O   O9        1.0  0.78412  0.49489  0.12550  1.0000
  O   O10       1.0  0.21590  0.50512  0.87451  1.0000
