data_image0
_chemical_formula_structural       Zn2H36C44N8O10
_chemical_formula_sum              "Zn2 H36 C44 N8 O10"
_cell_length_a       9.95539
_cell_length_b       10.9724
_cell_length_c       11.7023
_cell_angle_alpha    103.795
_cell_angle_beta     114.376
_cell_angle_gamma    106.866

_space_group_name_H-M_alt    "P 1"
_space_group_IT_number       1

loop_
  _space_group_symop_operation_xyz
  'x, y, z'

loop_
  _atom_site_type_symbol
  _atom_site_label
  _atom_site_symmetry_multiplicity
  _atom_site_fract_x
  _atom_site_fract_y
  _atom_site_fract_z
  _atom_site_occupancy
  Zn  Zn1       1.0  0.44249  0.58686  0.62153  1.0000
  Zn  Zn2       1.0  0.55751  0.41314  0.37847  1.0000
  H   H1        1.0  0.01211  0.61318  0.63168  1.0000
  H   H2        1.0  0.98789  0.38682  0.36832  1.0000
  H   H3        1.0  0.94419  0.85630  0.93353  1.0000
  H   H4        1.0  0.05580  0.14370  0.06647  1.0000
  H   H5        1.0  0.43194  0.92113  0.02400  1.0000
  H   H6        1.0  0.56806  0.07887  0.97600  1.0000
  H   H7        1.0  0.69292  0.55107  0.86439  1.0000
  H   H8        1.0  0.30708  0.44893  0.13561  1.0000
  H   H9        1.0  0.69137  0.41610  0.01119  1.0000
  H   H10       1.0  0.30863  0.58389  0.98882  1.0000
  H   H11       1.0  0.42341  0.24626  0.95862  1.0000
  H   H12       1.0  0.57659  0.75374  0.04138  1.0000
  H   H13       1.0  0.18685  0.34931  0.61691  1.0000
  H   H14       1.0  0.81315  0.65069  0.38309  1.0000
  H   H15       1.0  0.98095  0.08105  0.82301  1.0000
  H   H16       1.0  0.01905  0.91895  0.17699  1.0000
  H   H17       1.0  0.18026  0.22248  0.95219  1.0000
  H   H18       1.0  0.81974  0.77752  0.04782  1.0000
  H   H19       1.0  0.16181  0.05895  0.86377  1.0000
  H   H20       1.0  0.83819  0.94105  0.13623  1.0000
  H   H21       1.0  0.67519  0.12573  0.37133  1.0000
  H   H22       1.0  0.32481  0.87427  0.62866  1.0000
  H   H23       1.0  0.65135  0.96926  0.26070  1.0000
  H   H24       1.0  0.34865  0.03074  0.73930  1.0000
  H   H25       1.0  0.85267  0.10602  0.39024  1.0000
  H   H26       1.0  0.14733  0.89398  0.60976  1.0000
  H   H27       1.0  0.69146  0.83355  0.61030  1.0000
  H   H28       1.0  0.30854  0.16645  0.38970  1.0000
  H   H29       1.0  0.18477  0.60659  0.38388  1.0000
  H   H30       1.0  0.81523  0.39340  0.61612  1.0000
  H   H31       1.0  0.15809  0.72687  0.22360  1.0000
  H   H32       1.0  0.84191  0.27312  0.77640  1.0000
  H   H33       1.0  0.41003  0.90381  0.25879  1.0000
  H   H34       1.0  0.58997  0.09619  0.74121  1.0000
  H   H35       1.0  0.35844  0.08264  0.14137  1.0000
  H   H36       1.0  0.64156  0.91736  0.85863  1.0000
  C   C1        1.0  0.34567  0.73133  0.78023  1.0000
  C   C2        1.0  0.65433  0.26866  0.21977  1.0000
  C   C3        1.0  0.23326  0.76146  0.82491  1.0000
  C   C4        1.0  0.76674  0.23855  0.17508  1.0000
  C   C5        1.0  0.06331  0.69090  0.73441  1.0000
  C   C6        1.0  0.93669  0.30910  0.26559  1.0000
  C   C7        1.0  0.96027  0.72386  0.77568  1.0000
  C   C8        1.0  0.03972  0.27614  0.22431  1.0000
  C   C9        1.0  0.02558  0.82698  0.90580  1.0000
  C   C10       1.0  0.97442  0.17302  0.09420  1.0000
  C   C11       1.0  0.19591  0.89985  0.99563  1.0000
  C   C12       1.0  0.80409  0.10015  0.00437  1.0000
  C   C13       1.0  0.29929  0.86504  0.95540  1.0000
  C   C14       1.0  0.70071  0.13496  0.04459  1.0000
  C   C15       1.0  0.77901  0.65291  0.67680  1.0000
  C   C16       1.0  0.22099  0.34709  0.32320  1.0000
  C   C17       1.0  0.57929  0.47355  0.84443  1.0000
  C   C18       1.0  0.42071  0.52645  0.15558  1.0000
  C   C19       1.0  0.57698  0.39890  0.92490  1.0000
  C   C20       1.0  0.42302  0.60110  0.07510  1.0000
  C   C21       1.0  0.42675  0.30320  0.89429  1.0000
  C   C22       1.0  0.57325  0.69680  0.10571  1.0000
  C   C23       1.0  0.28156  0.28120  0.78054  1.0000
  C   C24       1.0  0.71844  0.71880  0.21946  1.0000
  C   C25       1.0  0.29571  0.36111  0.70495  1.0000
  C   C26       1.0  0.70429  0.63889  0.29506  1.0000
  C   C27       1.0  0.12060  0.17772  0.74328  1.0000
  C   C28       1.0  0.87940  0.82228  0.25672  1.0000
  C   C29       1.0  0.10872  0.13342  0.85154  1.0000
  C   C30       1.0  0.89128  0.86658  0.14846  1.0000
  C   C31       1.0  0.72864  0.98942  0.46788  1.0000
  C   C32       1.0  0.27136  0.01059  0.53212  1.0000
  C   C33       1.0  0.72737  0.05035  0.36625  1.0000
  C   C34       1.0  0.27263  0.94965  0.63375  1.0000
  C   C35       1.0  0.57377  0.88183  0.43734  1.0000
  C   C36       1.0  0.42623  0.11818  0.56266  1.0000
  C   C37       1.0  0.57527  0.80963  0.52208  1.0000
  C   C38       1.0  0.42473  0.19037  0.47792  1.0000
  C   C39       1.0  0.29222  0.68398  0.39495  1.0000
  C   C40       1.0  0.70778  0.31601  0.60504  1.0000
  C   C41       1.0  0.27865  0.75069  0.30653  1.0000
  C   C42       1.0  0.72135  0.24931  0.69346  1.0000
  C   C43       1.0  0.42063  0.84975  0.32672  1.0000
  C   C44       1.0  0.57936  0.15025  0.67328  1.0000
  N   N1        1.0  0.44078  0.45573  0.73699  1.0000
  N   N2        1.0  0.55922  0.54427  0.26302  1.0000
  N   N3        1.0  0.00062  0.12904  0.61638  1.0000
  N   N4        1.0  0.99938  0.87096  0.38363  1.0000
  N   N5        1.0  0.85706  0.02705  0.58711  1.0000
  N   N6        1.0  0.14294  0.97295  0.41289  1.0000
  N   N7        1.0  0.43928  0.71234  0.50078  1.0000
  N   N8        1.0  0.56072  0.28766  0.49922  1.0000
  O   O1        1.0  0.27839  0.63463  0.66034  1.0000
  O   O2        1.0  0.72160  0.36536  0.33966  1.0000
  O   O3        1.0  0.49967  0.80170  0.86130  1.0000
  O   O4        1.0  0.50033  0.19829  0.13870  1.0000
  O   O5        1.0  0.72895  0.58791  0.55123  1.0000
  O   O6        1.0  0.27105  0.41209  0.44876  1.0000
  O   O7        1.0  0.68848  0.66555  0.72630  1.0000
  O   O8        1.0  0.31152  0.33445  0.27369  1.0000
  O   O9        1.0  0.25549  0.00456  0.11897  1.0000
  O   O10       1.0  0.74450  0.99543  0.88103  1.0000
