data_image0
_chemical_formula_structural       Ca2H14C10O14
_chemical_formula_sum              "Ca2 H14 C10 O14"
_cell_length_a       5.61484
_cell_length_b       7.71713
_cell_length_c       9.728
_cell_angle_alpha    110.679
_cell_angle_beta     101.543
_cell_angle_gamma    98.3142

_space_group_name_H-M_alt    "P 1"
_space_group_IT_number       1

loop_
  _space_group_symop_operation_xyz
  'x, y, z'

loop_
  _atom_site_type_symbol
  _atom_site_label
  _atom_site_symmetry_multiplicity
  _atom_site_fract_x
  _atom_site_fract_y
  _atom_site_fract_z
  _atom_site_occupancy
  Ca  Ca1       1.0  0.97469  0.41637  0.16133  1.0000
  Ca  Ca2       1.0  0.02531  0.58363  0.83867  1.0000
  H   H1        1.0  0.26127  0.39186  0.43058  1.0000
  H   H2        1.0  0.73873  0.60815  0.56942  1.0000
  H   H3        1.0  0.45589  0.36349  0.32873  1.0000
  H   H4        1.0  0.54411  0.63652  0.67127  1.0000
  H   H5        1.0  0.21801  0.22158  0.92478  1.0000
  H   H6        1.0  0.78200  0.77842  0.07523  1.0000
  H   H7        1.0  0.25649  0.10327  0.02779  1.0000
  H   H8        1.0  0.74352  0.89672  0.97222  1.0000
  H   H9        1.0  0.82248  0.26111  0.37310  1.0000
  H   H10       1.0  0.17752  0.73889  0.62690  1.0000
  H   H11       1.0  0.61579  0.12211  0.21376  1.0000
  H   H12       1.0  0.38421  0.87790  0.78624  1.0000
  H   H13       1.0  0.14544  0.05605  0.33779  1.0000
  H   H14       1.0  0.85456  0.94395  0.66221  1.0000
  C   C1        1.0  0.35850  0.81174  0.16915  1.0000
  C   C2        1.0  0.64151  0.18827  0.83084  1.0000
  C   C3        1.0  0.43682  0.90355  0.34061  1.0000
  C   C4        1.0  0.56318  0.09645  0.65939  1.0000
  C   C5        1.0  0.63853  0.87160  0.43254  1.0000
  C   C6        1.0  0.36147  0.12841  0.56745  1.0000
  C   C7        1.0  0.30184  0.03140  0.40909  1.0000
  C   C8        1.0  0.69816  0.96860  0.59091  1.0000
  C   C9        1.0  0.78807  0.73392  0.36542  1.0000
  C   C10       1.0  0.21193  0.26608  0.63458  1.0000
  O   O1        1.0  0.22849  0.64092  0.10184  1.0000
  O   O2        1.0  0.77151  0.35908  0.89816  1.0000
  O   O3        1.0  0.31157  0.41920  0.34692  1.0000
  O   O4        1.0  0.68843  0.58081  0.65308  1.0000
  O   O5        1.0  0.16341  0.19262  0.00611  1.0000
  O   O6        1.0  0.83660  0.80738  0.99389  1.0000
  O   O7        1.0  0.72005  0.25586  0.27567  1.0000
  O   O8        1.0  0.27995  0.74414  0.72433  1.0000
  O   O9        1.0  0.91818  0.66982  0.45144  1.0000
  O   O10       1.0  0.08181  0.33018  0.54856  1.0000
  O   O11       1.0  0.77595  0.68222  0.22394  1.0000
  O   O12       1.0  0.22404  0.31778  0.77606  1.0000
  O   O13       1.0  0.58707  0.08343  0.90105  1.0000
  O   O14       1.0  0.41293  0.91657  0.09895  1.0000
