data_image0
_chemical_formula_structural       Cu4H12C8S4N16
_chemical_formula_sum              "Cu4 H12 C8 S4 N16"
_cell_length_a       4.90859
_cell_length_b       8.63418
_cell_length_c       11.6482
_cell_angle_alpha    110.397
_cell_angle_beta     90.0001
_cell_angle_gamma    89.9999

_space_group_name_H-M_alt    "P 1"
_space_group_IT_number       1

loop_
  _space_group_symop_operation_xyz
  'x, y, z'

loop_
  _atom_site_type_symbol
  _atom_site_label
  _atom_site_symmetry_multiplicity
  _atom_site_fract_x
  _atom_site_fract_y
  _atom_site_fract_z
  _atom_site_occupancy
  Cu  Cu1       1.0  0.50588  0.32821  0.84422  1.0000
  Cu  Cu2       1.0  0.00588  0.17179  0.65578  1.0000
  Cu  Cu3       1.0  0.49411  0.67179  0.15578  1.0000
  Cu  Cu4       1.0  0.99412  0.82821  0.34422  1.0000
  H   H1        1.0  0.65451  0.58806  0.64781  1.0000
  H   H2        1.0  0.15451  0.91194  0.85219  1.0000
  H   H3        1.0  0.34548  0.41194  0.35219  1.0000
  H   H4        1.0  0.84549  0.08806  0.14781  1.0000
  H   H5        1.0  0.89133  0.75846  0.68437  1.0000
  H   H6        1.0  0.39133  0.74154  0.81563  1.0000
  H   H7        1.0  0.10867  0.24154  0.31563  1.0000
  H   H8        1.0  0.60867  0.25846  0.18437  1.0000
  H   H9        1.0  0.86498  0.61417  0.53090  1.0000
  H   H10       1.0  0.36497  0.88583  0.96911  1.0000
  H   H11       1.0  0.13503  0.38583  0.46911  1.0000
  H   H12       1.0  0.63503  0.11417  0.03090  1.0000
  C   C1        1.0  0.50055  0.94910  0.64936  1.0000
  C   C2        1.0  0.00055  0.55089  0.85064  1.0000
  C   C3        1.0  0.49945  0.05090  0.35064  1.0000
  C   C4        1.0  0.99945  0.44911  0.14936  1.0000
  C   C5        1.0  0.75319  0.67902  0.61524  1.0000
  C   C6        1.0  0.25318  0.82098  0.88476  1.0000
  C   C7        1.0  0.24681  0.32098  0.38476  1.0000
  C   C8        1.0  0.74681  0.17902  0.11524  1.0000
  S   S1        1.0  0.69591  0.07606  0.76715  1.0000
  S   S2        1.0  0.19591  0.42394  0.73285  1.0000
  S   S3        1.0  0.30409  0.92394  0.23285  1.0000
  S   S4        1.0  0.80409  0.57606  0.26715  1.0000
  N   N1        1.0  0.28240  0.98554  0.59272  1.0000
  N   N2        1.0  0.78239  0.51446  0.90728  1.0000
  N   N3        1.0  0.71761  0.01446  0.40727  1.0000
  N   N4        1.0  0.21760  0.48554  0.09272  1.0000
  N   N5        1.0  0.21404  0.84415  0.49954  1.0000
  N   N6        1.0  0.71404  0.65585  0.00046  1.0000
  N   N7        1.0  0.78596  0.15585  0.50046  1.0000
  N   N8        1.0  0.28596  0.34415  0.99954  1.0000
  N   N9        1.0  0.37244  0.72233  0.49726  1.0000
  N   N10       1.0  0.87243  0.77767  0.00274  1.0000
  N   N11       1.0  0.62757  0.27767  0.50274  1.0000
  N   N12       1.0  0.12757  0.22233  0.99726  1.0000
  N   N13       1.0  0.55020  0.78466  0.59005  1.0000
  N   N14       1.0  0.05020  0.71534  0.90995  1.0000
  N   N15       1.0  0.44980  0.21534  0.40995  1.0000
  N   N16       1.0  0.94980  0.28466  0.09005  1.0000
