data_image0
_chemical_formula_structural       Na2Cd2H28C18N6O20
_chemical_formula_sum              "Na2 Cd2 H28 C18 N6 O20"
_cell_length_a       8.19182
_cell_length_b       9.62919
_cell_length_c       9.90203
_cell_angle_alpha    95.125
_cell_angle_beta     92.4028
_cell_angle_gamma    110.72

_space_group_name_H-M_alt    "P 1"
_space_group_IT_number       1

loop_
  _space_group_symop_operation_xyz
  'x, y, z'

loop_
  _atom_site_type_symbol
  _atom_site_label
  _atom_site_symmetry_multiplicity
  _atom_site_fract_x
  _atom_site_fract_y
  _atom_site_fract_z
  _atom_site_occupancy
  Na  Na1       1.0  0.02272  0.30893  0.68720  1.0000
  Na  Na2       1.0  0.97728  0.69108  0.31280  1.0000
  Cd  Cd1       1.0  0.49927  0.67686  0.23073  1.0000
  Cd  Cd2       1.0  0.50073  0.32314  0.76927  1.0000
  H   H1        1.0  0.08614  0.20573  0.00042  1.0000
  H   H2        1.0  0.91386  0.79427  0.99958  1.0000
  H   H3        1.0  0.07318  0.15257  0.16874  1.0000
  H   H4        1.0  0.92682  0.84743  0.83126  1.0000
  H   H5        1.0  0.91461  0.32827  0.23031  1.0000
  H   H6        1.0  0.08539  0.67173  0.76969  1.0000
  H   H7        1.0  0.92189  0.37547  0.06305  1.0000
  H   H8        1.0  0.07812  0.62453  0.93695  1.0000
  H   H9        1.0  0.57370  0.00567  0.69221  1.0000
  H   H10       1.0  0.42630  0.99432  0.30779  1.0000
  H   H11       1.0  0.41904  0.83194  0.72905  1.0000
  H   H12       1.0  0.58096  0.16806  0.27095  1.0000
  H   H13       1.0  0.79445  0.88417  0.65240  1.0000
  H   H14       1.0  0.20555  0.11583  0.34760  1.0000
  H   H15       1.0  0.64725  0.71362  0.69901  1.0000
  H   H16       1.0  0.35275  0.28638  0.30099  1.0000
  H   H17       1.0  0.71089  0.58303  0.04617  1.0000
  H   H18       1.0  0.28911  0.41697  0.95383  1.0000
  H   H19       1.0  0.71215  0.16494  0.50720  1.0000
  H   H20       1.0  0.28785  0.83506  0.49279  1.0000
  H   H21       1.0  0.67725  0.47285  0.15532  1.0000
  H   H22       1.0  0.32276  0.52715  0.84468  1.0000
  H   H23       1.0  0.84081  0.12431  0.41158  1.0000
  H   H24       1.0  0.15919  0.87569  0.58842  1.0000
  H   H25       1.0  0.17649  0.60473  0.54578  1.0000
  H   H26       1.0  0.82351  0.39527  0.45421  1.0000
  H   H27       1.0  0.26978  0.48476  0.54554  1.0000
  H   H28       1.0  0.73022  0.51524  0.45445  1.0000
  C   C1        1.0  0.76155  0.97332  0.14247  1.0000
  C   C2        1.0  0.23845  0.02668  0.85753  1.0000
  C   C3        1.0  0.54131  0.83064  0.96696  1.0000
  C   C4        1.0  0.45868  0.16935  0.03304  1.0000
  C   C5        1.0  0.77813  0.05240  0.91271  1.0000
  C   C6        1.0  0.22188  0.94761  0.08728  1.0000
  C   C7        1.0  0.00923  0.19137  0.08908  1.0000
  C   C8        1.0  0.99077  0.80863  0.91092  1.0000
  C   C9        1.0  0.99189  0.33881  0.14141  1.0000
  C   C10       1.0  0.00811  0.66119  0.85859  1.0000
  C   C11       1.0  0.16932  0.45980  0.17771  1.0000
  C   C12       1.0  0.83068  0.54020  0.82229  1.0000
  C   C13       1.0  0.55837  0.89972  0.73180  1.0000
  C   C14       1.0  0.44163  0.10027  0.26820  1.0000
  C   C15       1.0  0.65477  0.81432  0.65157  1.0000
  C   C16       1.0  0.34523  0.18568  0.34843  1.0000
  C   C17       1.0  0.58832  0.76857  0.50401  1.0000
  C   C18       1.0  0.41168  0.23142  0.49599  1.0000
  N   N1        1.0  0.61188  0.85696  0.09782  1.0000
  N   N2        1.0  0.38812  0.14303  0.90217  1.0000
  N   N3        1.0  0.84153  0.07121  0.04792  1.0000
  N   N4        1.0  0.15847  0.92879  0.95208  1.0000
  N   N5        1.0  0.62518  0.93106  0.87573  1.0000
  N   N6        1.0  0.37482  0.06893  0.12427  1.0000
  O   O1        1.0  0.82877  0.99277  0.26108  1.0000
  O   O2        1.0  0.17123  0.00723  0.73892  1.0000
  O   O3        1.0  0.40508  0.72244  0.92873  1.0000
  O   O4        1.0  0.59492  0.27756  0.07127  1.0000
  O   O5        1.0  0.85488  0.13689  0.83029  1.0000
  O   O6        1.0  0.14511  0.86311  0.16972  1.0000
  O   O7        1.0  0.30469  0.44150  0.12873  1.0000
  O   O8        1.0  0.69531  0.55850  0.87128  1.0000
  O   O9        1.0  0.18408  0.57704  0.25385  1.0000
  O   O10       1.0  0.81591  0.42297  0.74615  1.0000
  O   O11       1.0  0.49067  0.82673  0.44665  1.0000
  O   O12       1.0  0.50933  0.17327  0.55335  1.0000
  O   O13       1.0  0.63791  0.67162  0.43771  1.0000
  O   O14       1.0  0.36209  0.32838  0.56229  1.0000
  O   O15       1.0  0.71940  0.58105  0.14679  1.0000
  O   O16       1.0  0.28060  0.41895  0.85321  1.0000
  O   O17       1.0  0.83740  0.19378  0.48970  1.0000
  O   O18       1.0  0.16260  0.80622  0.51029  1.0000
  O   O19       1.0  0.20022  0.53134  0.59821  1.0000
  O   O20       1.0  0.79978  0.46866  0.40179  1.0000
