data_image0
_chemical_formula_structural       HgH16C8Cl2O4
_chemical_formula_sum              "Hg1 H16 C8 Cl2 O4"
_cell_length_a       7.22643
_cell_length_b       7.22641
_cell_length_c       7.83511
_cell_angle_alpha    117.44
_cell_angle_beta     117.479
_cell_angle_gamma    90.0413

_space_group_name_H-M_alt    "P 1"
_space_group_IT_number       1

loop_
  _space_group_symop_operation_xyz
  'x, y, z'

loop_
  _atom_site_type_symbol
  _atom_site_label
  _atom_site_symmetry_multiplicity
  _atom_site_fract_x
  _atom_site_fract_y
  _atom_site_fract_z
  _atom_site_occupancy
  Hg  Hg1       1.0  0.00000  0.00000  0.00000  1.0000
  H   H1        1.0  0.95344  0.20249  0.65753  1.0000
  H   H2        1.0  0.70418  0.45486  0.65712  1.0000
  H   H3        1.0  0.20203  0.70420  0.65718  1.0000
  H   H4        1.0  0.45500  0.95349  0.65745  1.0000
  H   H5        1.0  0.04656  0.79751  0.34247  1.0000
  H   H6        1.0  0.29582  0.54514  0.34288  1.0000
  H   H7        1.0  0.79797  0.29580  0.34282  1.0000
  H   H8        1.0  0.54500  0.04651  0.34255  1.0000
  H   H9        1.0  0.09340  0.48058  0.79373  1.0000
  H   H10       1.0  0.70025  0.31285  0.79309  1.0000
  H   H11       1.0  0.48009  0.70043  0.79332  1.0000
  H   H12       1.0  0.31319  0.09333  0.79352  1.0000
  H   H13       1.0  0.90660  0.51942  0.20626  1.0000
  H   H14       1.0  0.29975  0.68715  0.20691  1.0000
  H   H15       1.0  0.51991  0.29957  0.20668  1.0000
  H   H16       1.0  0.68681  0.90667  0.20648  1.0000
  C   C1        1.0  0.99969  0.36661  0.80075  1.0000
  C   C2        1.0  0.80111  0.43401  0.80041  1.0000
  C   C3        1.0  0.36625  0.80116  0.80049  1.0000
  C   C4        1.0  0.43413  0.99969  0.80065  1.0000
  C   C5        1.0  0.00031  0.63339  0.19925  1.0000
  C   C6        1.0  0.19889  0.56599  0.19959  1.0000
  C   C7        1.0  0.63375  0.19884  0.19951  1.0000
  C   C8        1.0  0.56587  0.00031  0.19935  1.0000
  Cl  Cl1       1.0  0.19880  0.19865  0.39747  1.0000
  Cl  Cl2       1.0  0.80120  0.80135  0.60253  1.0000
  O   O1        1.0  0.13770  0.35916  0.00022  1.0000
  O   O2        1.0  0.86230  0.64084  0.99978  1.0000
  O   O3        1.0  0.35882  0.86228  0.99985  1.0000
  O   O4        1.0  0.64118  0.13772  0.00015  1.0000
