data_image0
_chemical_formula_structural       Li6H12C12N6O18
_chemical_formula_sum              "Li6 H12 C12 N6 O18"
_cell_length_a       6.44466
_cell_length_b       9.50177
_cell_length_c       10.2496
_cell_angle_alpha    103.231
_cell_angle_beta     106.843
_cell_angle_gamma    91.5614

_space_group_name_H-M_alt    "P 1"
_space_group_IT_number       1

loop_
  _space_group_symop_operation_xyz
  'x, y, z'

loop_
  _atom_site_type_symbol
  _atom_site_label
  _atom_site_symmetry_multiplicity
  _atom_site_fract_x
  _atom_site_fract_y
  _atom_site_fract_z
  _atom_site_occupancy
  Li  Li1       1.0  0.29665  0.46609  0.16083  1.0000
  Li  Li2       1.0  0.70335  0.53391  0.83917  1.0000
  Li  Li3       1.0  0.21525  0.47000  0.83410  1.0000
  Li  Li4       1.0  0.78475  0.53000  0.16590  1.0000
  Li  Li5       1.0  0.15557  0.12107  0.64283  1.0000
  Li  Li6       1.0  0.84442  0.87893  0.35717  1.0000
  H   H1        1.0  0.60065  0.62531  0.34924  1.0000
  H   H2        1.0  0.39935  0.37469  0.65076  1.0000
  H   H3        1.0  0.66649  0.46322  0.35001  1.0000
  H   H4        1.0  0.33351  0.53679  0.64999  1.0000
  H   H5        1.0  0.13890  0.65833  0.24938  1.0000
  H   H6        1.0  0.86110  0.34167  0.75062  1.0000
  H   H7        1.0  0.14428  0.57923  0.36915  1.0000
  H   H8        1.0  0.85572  0.42077  0.63085  1.0000
  H   H9        1.0  0.55387  0.18015  0.67285  1.0000
  H   H10       1.0  0.44613  0.81985  0.32715  1.0000
  H   H11       1.0  0.45469  0.14494  0.50670  1.0000
  H   H12       1.0  0.54531  0.85506  0.49330  1.0000
  C   C1        1.0  0.23064  0.81876  0.95635  1.0000
  C   C2        1.0  0.76935  0.18124  0.04364  1.0000
  C   C3        1.0  0.21863  0.03720  0.90428  1.0000
  C   C4        1.0  0.78136  0.96280  0.09572  1.0000
  C   C5        1.0  0.18823  0.83116  0.73274  1.0000
  C   C6        1.0  0.81176  0.16884  0.26726  1.0000
  C   C7        1.0  0.24768  0.72806  0.06411  1.0000
  C   C8        1.0  0.75232  0.27194  0.93590  1.0000
  C   C9        1.0  0.23474  0.20346  0.94336  1.0000
  C   C10       1.0  0.76527  0.79654  0.05665  1.0000
  C   C11       1.0  0.16223  0.76396  0.57758  1.0000
  C   C12       1.0  0.83778  0.23604  0.42242  1.0000
  N   N1        1.0  0.23951  0.96335  0.00294  1.0000
  N   N2        1.0  0.76049  0.03665  0.99706  1.0000
  N   N3        1.0  0.18667  0.97566  0.76757  1.0000
  N   N4        1.0  0.81332  0.02434  0.23243  1.0000
  N   N5        1.0  0.21210  0.74731  0.82347  1.0000
  N   N6        1.0  0.78789  0.25269  0.17653  1.0000
  O   O1        1.0  0.26203  0.59337  0.02418  1.0000
  O   O2        1.0  0.73796  0.40663  0.97582  1.0000
  O   O3        1.0  0.24268  0.79567  0.18500  1.0000
  O   O4        1.0  0.75732  0.20432  0.81500  1.0000
  O   O5        1.0  0.24321  0.26620  0.06697  1.0000
  O   O6        1.0  0.75679  0.73379  0.93302  1.0000
  O   O7        1.0  0.23934  0.26162  0.84383  1.0000
  O   O8        1.0  0.76066  0.73838  0.15617  1.0000
  O   O9        1.0  0.09493  0.84431  0.49489  1.0000
  O   O10       1.0  0.90506  0.15569  0.50511  1.0000
  O   O11       1.0  0.21407  0.63568  0.54461  1.0000
  O   O12       1.0  0.78597  0.36433  0.45539  1.0000
  O   O13       1.0  0.59640  0.52781  0.28818  1.0000
  O   O14       1.0  0.40359  0.47219  0.71182  1.0000
  O   O15       1.0  0.10325  0.56170  0.26422  1.0000
  O   O16       1.0  0.89675  0.43830  0.73578  1.0000
  O   O17       1.0  0.41687  0.17673  0.59326  1.0000
  O   O18       1.0  0.58313  0.82327  0.40674  1.0000
