data_image0
_chemical_formula_structural       Rb12H16C24N12O32
_chemical_formula_sum              "Rb12 H16 C24 N12 O32"
_cell_length_a       6.87995
_cell_length_b       10.3994
_cell_length_c       18.1596
_cell_angle_alpha    92.6921
_cell_angle_beta     90
_cell_angle_gamma    89.9999

_space_group_name_H-M_alt    "P 1"
_space_group_IT_number       1

loop_
  _space_group_symop_operation_xyz
  'x, y, z'

loop_
  _atom_site_type_symbol
  _atom_site_label
  _atom_site_symmetry_multiplicity
  _atom_site_fract_x
  _atom_site_fract_y
  _atom_site_fract_z
  _atom_site_occupancy
  Rb  Rb1       1.0  0.96480  0.70737  0.81993  1.0000
  Rb  Rb2       1.0  0.46480  0.79263  0.68006  1.0000
  Rb  Rb3       1.0  0.03521  0.29263  0.18007  1.0000
  Rb  Rb4       1.0  0.53520  0.20737  0.31994  1.0000
  Rb  Rb5       1.0  0.67917  0.85696  0.21293  1.0000
  Rb  Rb6       1.0  0.17918  0.64303  0.28707  1.0000
  Rb  Rb7       1.0  0.32083  0.14304  0.78707  1.0000
  Rb  Rb8       1.0  0.82082  0.35696  0.71293  1.0000
  Rb  Rb9       1.0  0.72709  0.39649  0.94895  1.0000
  Rb  Rb10      1.0  0.22709  0.10352  0.55105  1.0000
  Rb  Rb11      1.0  0.27291  0.60352  0.05105  1.0000
  Rb  Rb12      1.0  0.77291  0.89648  0.44895  1.0000
  H   H1        1.0  0.52242  0.61963  0.85640  1.0000
  H   H2        1.0  0.02242  0.88037  0.64360  1.0000
  H   H3        1.0  0.47758  0.38037  0.14360  1.0000
  H   H4        1.0  0.97758  0.11962  0.35640  1.0000
  H   H5        1.0  0.51678  0.53959  0.78124  1.0000
  H   H6        1.0  0.01678  0.96041  0.71876  1.0000
  H   H7        1.0  0.48322  0.46041  0.21876  1.0000
  H   H8        1.0  0.98322  0.03959  0.28124  1.0000
  H   H9        1.0  0.19174  0.41082  0.86269  1.0000
  H   H10       1.0  0.69174  0.08918  0.63731  1.0000
  H   H11       1.0  0.80826  0.58918  0.13731  1.0000
  H   H12       1.0  0.30826  0.91082  0.36269  1.0000
  H   H13       1.0  0.22343  0.46588  0.78391  1.0000
  H   H14       1.0  0.72343  0.03413  0.71609  1.0000
  H   H15       1.0  0.77656  0.53412  0.21609  1.0000
  H   H16       1.0  0.27657  0.96588  0.28391  1.0000
  C   C1        1.0  0.76890  0.86388  0.00386  1.0000
  C   C2        1.0  0.26890  0.63613  0.49614  1.0000
  C   C3        1.0  0.23110  0.13613  0.99614  1.0000
  C   C4        1.0  0.73110  0.36387  0.50386  1.0000
  C   C5        1.0  0.78558  0.02419  0.92381  1.0000
  C   C6        1.0  0.28557  0.47581  0.57619  1.0000
  C   C7        1.0  0.21442  0.97581  0.07619  1.0000
  C   C8        1.0  0.71442  0.52418  0.42381  1.0000
  C   C9        1.0  0.70198  0.06968  0.04282  1.0000
  C   C10       1.0  0.20198  0.43032  0.45718  1.0000
  C   C11       1.0  0.29802  0.93032  0.95718  1.0000
  C   C12       1.0  0.79802  0.56968  0.54282  1.0000
  C   C13       1.0  0.78852  0.72070  0.01965  1.0000
  C   C14       1.0  0.28852  0.77930  0.48035  1.0000
  C   C15       1.0  0.21148  0.27930  0.98035  1.0000
  C   C16       1.0  0.71148  0.22069  0.51965  1.0000
  C   C17       1.0  0.81808  0.06936  0.84525  1.0000
  C   C18       1.0  0.31808  0.43064  0.65475  1.0000
  C   C19       1.0  0.18192  0.93064  0.15475  1.0000
  C   C20       1.0  0.68192  0.56936  0.34525  1.0000
  C   C21       1.0  0.64290  0.16777  0.10505  1.0000
  C   C22       1.0  0.14290  0.33223  0.39495  1.0000
  C   C23       1.0  0.35710  0.83223  0.89495  1.0000
  C   C24       1.0  0.85710  0.66777  0.60505  1.0000
  N   N1        1.0  0.71525  0.94565  0.05947  1.0000
  N   N2        1.0  0.21525  0.55435  0.44053  1.0000
  N   N3        1.0  0.28476  0.05436  0.94053  1.0000
  N   N4        1.0  0.78475  0.44564  0.55947  1.0000
  N   N5        1.0  0.80905  0.89894  0.93534  1.0000
  N   N6        1.0  0.30905  0.60106  0.56466  1.0000
  N   N7        1.0  0.19095  0.10106  0.06466  1.0000
  N   N8        1.0  0.69095  0.39894  0.43534  1.0000
  N   N9        1.0  0.73370  0.11347  0.97568  1.0000
  N   N10       1.0  0.23369  0.38653  0.52432  1.0000
  N   N11       1.0  0.26631  0.88653  0.02432  1.0000
  N   N12       1.0  0.76631  0.61346  0.47568  1.0000
  O   O1        1.0  0.69159  0.68294  0.07422  1.0000
  O   O2        1.0  0.19158  0.81705  0.42578  1.0000
  O   O3        1.0  0.30842  0.31706  0.92578  1.0000
  O   O4        1.0  0.80842  0.18294  0.57422  1.0000
  O   O5        1.0  0.89988  0.65501  0.97775  1.0000
  O   O6        1.0  0.39987  0.84500  0.52225  1.0000
  O   O7        1.0  0.10013  0.34499  0.02225  1.0000
  O   O8        1.0  0.60013  0.15500  0.47775  1.0000
  O   O9        1.0  0.85803  0.98134  0.79634  1.0000
  O   O10       1.0  0.35803  0.51867  0.70366  1.0000
  O   O11       1.0  0.14197  0.01867  0.20366  1.0000
  O   O12       1.0  0.64197  0.48133  0.29634  1.0000
  O   O13       1.0  0.79914  0.18766  0.83565  1.0000
  O   O14       1.0  0.29914  0.31235  0.66435  1.0000
  O   O15       1.0  0.20085  0.81235  0.16435  1.0000
  O   O16       1.0  0.70085  0.68765  0.33565  1.0000
  O   O17       1.0  0.59819  0.27902  0.08476  1.0000
  O   O18       1.0  0.09819  0.22098  0.41524  1.0000
  O   O19       1.0  0.40181  0.72099  0.91524  1.0000
  O   O20       1.0  0.90181  0.77901  0.58475  1.0000
  O   O21       1.0  0.64758  0.12894  0.16975  1.0000
  O   O22       1.0  0.14759  0.37106  0.33025  1.0000
  O   O23       1.0  0.35242  0.87106  0.83025  1.0000
  O   O24       1.0  0.85241  0.62894  0.66975  1.0000
  O   O25       1.0  0.60113  0.55803  0.82431  1.0000
  O   O26       1.0  0.10113  0.94197  0.67569  1.0000
  O   O27       1.0  0.39887  0.44197  0.17569  1.0000
  O   O28       1.0  0.89887  0.05803  0.32431  1.0000
  O   O29       1.0  0.12148  0.44357  0.81949  1.0000
  O   O30       1.0  0.62148  0.05642  0.68051  1.0000
  O   O31       1.0  0.87852  0.55643  0.18051  1.0000
  O   O32       1.0  0.37852  0.94357  0.31949  1.0000
