data_image0
_chemical_formula_structural       La2H12C22N4O16
_chemical_formula_sum              "La2 H12 C22 N4 O16"
_cell_length_a       7.84241
_cell_length_b       8.9173
_cell_length_c       10.6247
_cell_angle_alpha    67.4125
_cell_angle_beta     85.4429
_cell_angle_gamma    80.1058

_space_group_name_H-M_alt    "P 1"
_space_group_IT_number       1

loop_
  _space_group_symop_operation_xyz
  'x, y, z'

loop_
  _atom_site_type_symbol
  _atom_site_label
  _atom_site_symmetry_multiplicity
  _atom_site_fract_x
  _atom_site_fract_y
  _atom_site_fract_z
  _atom_site_occupancy
  La  La1       1.0  0.19561  0.81096  0.47072  1.0000
  La  La2       1.0  0.80438  0.18904  0.52928  1.0000
  H   H1        1.0  0.88671  0.43542  0.22231  1.0000
  H   H2        1.0  0.11329  0.56459  0.77768  1.0000
  H   H3        1.0  0.75542  0.29271  0.82692  1.0000
  H   H4        1.0  0.24458  0.70729  0.17309  1.0000
  H   H5        1.0  0.93482  0.08908  0.02237  1.0000
  H   H6        1.0  0.06518  0.91093  0.97763  1.0000
  H   H7        1.0  0.52566  0.85514  0.83047  1.0000
  H   H8        1.0  0.47434  0.14486  0.16953  1.0000
  H   H9        1.0  0.56279  0.62210  0.73921  1.0000
  H   H10       1.0  0.43720  0.37790  0.26080  1.0000
  H   H11       1.0  0.68170  0.74113  0.05969  1.0000
  H   H12       1.0  0.31830  0.25888  0.94030  1.0000
  C   C1        1.0  0.02901  0.11898  0.24452  1.0000
  C   C2        1.0  0.97098  0.88103  0.75548  1.0000
  C   C3        1.0  0.92073  0.24882  0.13248  1.0000
  C   C4        1.0  0.07928  0.75118  0.86751  1.0000
  C   C5        1.0  0.85880  0.40259  0.13809  1.0000
  C   C6        1.0  0.14121  0.59741  0.86191  1.0000
  C   C7        1.0  0.75851  0.51412  0.02922  1.0000
  C   C8        1.0  0.24150  0.48589  0.97078  1.0000
  C   C9        1.0  0.72069  0.47549  0.91848  1.0000
  C   C10       1.0  0.27930  0.52451  0.08152  1.0000
  C   C11       1.0  0.78355  0.32181  0.91264  1.0000
  C   C12       1.0  0.21644  0.67819  0.08736  1.0000
  C   C13       1.0  0.88346  0.21082  0.02113  1.0000
  C   C14       1.0  0.11654  0.78919  0.97887  1.0000
  C   C15       1.0  0.59493  0.73144  0.88152  1.0000
  C   C16       1.0  0.40507  0.26856  0.11848  1.0000
  C   C17       1.0  0.53496  0.00740  0.42745  1.0000
  C   C18       1.0  0.46506  0.99260  0.57254  1.0000
  C   C19       1.0  0.53026  0.49672  0.56912  1.0000
  C   C20       1.0  0.46976  0.50324  0.43089  1.0000
  C   C21       1.0  0.05320  0.44279  0.56450  1.0000
  C   C22       1.0  0.94678  0.55719  0.43551  1.0000
  N   N1        1.0  0.61860  0.61404  0.82998  1.0000
  N   N2        1.0  0.38140  0.38595  0.17002  1.0000
  N   N3        1.0  0.67727  0.67502  0.00091  1.0000
  N   N4        1.0  0.32274  0.32499  0.99908  1.0000
  O   O1        1.0  0.11928  0.00003  0.22138  1.0000
  O   O2        1.0  0.88072  0.99996  0.77862  1.0000
  O   O3        1.0  0.02806  0.13059  0.36223  1.0000
  O   O4        1.0  0.97195  0.86942  0.63777  1.0000
  O   O5        1.0  0.44791  0.95717  0.36004  1.0000
  O   O6        1.0  0.55208  0.04283  0.63995  1.0000
  O   O7        1.0  0.67094  0.07128  0.38575  1.0000
  O   O8        1.0  0.32906  0.92871  0.61425  1.0000
  O   O9        1.0  0.47309  0.61985  0.60149  1.0000
  O   O10       1.0  0.52690  0.38014  0.39851  1.0000
  O   O11       1.0  0.63193  0.37138  0.63883  1.0000
  O   O12       1.0  0.36804  0.62861  0.36118  1.0000
  O   O13       1.0  0.14876  0.51110  0.61044  1.0000
  O   O14       1.0  0.85125  0.48892  0.38956  1.0000
  O   O15       1.0  0.03669  0.29266  0.61285  1.0000
  O   O16       1.0  0.96332  0.70736  0.38715  1.0000
