data_image0
_chemical_formula_structural       Li2H16C4I2N4
_chemical_formula_sum              "Li2 H16 C4 I2 N4"
_cell_length_a       4.89959
_cell_length_b       5.95841
_cell_length_c       10.2431
_cell_angle_alpha    89.9999
_cell_angle_beta     90.0004
_cell_angle_gamma    102.621

_space_group_name_H-M_alt    "P 1"
_space_group_IT_number       1

loop_
  _space_group_symop_operation_xyz
  'x, y, z'

loop_
  _atom_site_type_symbol
  _atom_site_label
  _atom_site_symmetry_multiplicity
  _atom_site_fract_x
  _atom_site_fract_y
  _atom_site_fract_z
  _atom_site_occupancy
  Li  Li1       1.0  0.64448  0.10317  0.75000  1.0000
  Li  Li2       1.0  0.35552  0.89683  0.25000  1.0000
  H   H1        1.0  0.78448  0.24148  0.51046  1.0000
  H   H2        1.0  0.21553  0.75853  0.01046  1.0000
  H   H3        1.0  0.21552  0.75853  0.48954  1.0000
  H   H4        1.0  0.78447  0.24148  0.98954  1.0000
  H   H5        1.0  0.86433  0.44434  0.62140  1.0000
  H   H6        1.0  0.13567  0.55566  0.12140  1.0000
  H   H7        1.0  0.13567  0.55566  0.37860  1.0000
  H   H8        1.0  0.86433  0.44434  0.87860  1.0000
  H   H9        1.0  0.30248  0.26203  0.51396  1.0000
  H   H10       1.0  0.69752  0.73798  0.01396  1.0000
  H   H11       1.0  0.69752  0.73797  0.48604  1.0000
  H   H12       1.0  0.30248  0.26203  0.98604  1.0000
  H   H13       1.0  0.38030  0.47125  0.63894  1.0000
  H   H14       1.0  0.61971  0.52875  0.13894  1.0000
  H   H15       1.0  0.61970  0.52875  0.36106  1.0000
  H   H16       1.0  0.38029  0.47125  0.86106  1.0000
  C   C1        1.0  0.46605  0.40451  0.55127  1.0000
  C   C2        1.0  0.53395  0.59549  0.05127  1.0000
  C   C3        1.0  0.53395  0.59549  0.44873  1.0000
  C   C4        1.0  0.46605  0.40451  0.94873  1.0000
  I   I1        1.0  0.08123  0.86362  0.75000  1.0000
  I   I2        1.0  0.91877  0.13638  0.25000  1.0000
  N   N1        1.0  0.70770  0.31029  0.59083  1.0000
  N   N2        1.0  0.29230  0.68971  0.09084  1.0000
  N   N3        1.0  0.29230  0.68971  0.40916  1.0000
  N   N4        1.0  0.70770  0.31029  0.90917  1.0000
