data_image0
_chemical_formula_structural       Co6H6C30O24
_chemical_formula_sum              "Co6 H6 C30 O24"
_cell_length_a       6.89925
_cell_length_b       14.9284
_cell_length_c       14.9281
_cell_angle_alpha    117.781
_cell_angle_beta     98.9551
_cell_angle_gamma    98.4281

_space_group_name_H-M_alt    "P 1"
_space_group_IT_number       1

loop_
  _space_group_symop_operation_xyz
  'x, y, z'

loop_
  _atom_site_type_symbol
  _atom_site_label
  _atom_site_symmetry_multiplicity
  _atom_site_fract_x
  _atom_site_fract_y
  _atom_site_fract_z
  _atom_site_occupancy
  Co  Co1       1.0  0.88083  0.68684  0.42900  1.0000
  Co  Co2       1.0  0.19651  0.74264  0.31440  1.0000
  Co  Co3       1.0  0.45718  0.57124  0.25777  1.0000
  Co  Co4       1.0  0.12618  0.31401  0.58419  1.0000
  Co  Co5       1.0  0.80381  0.26660  0.68290  1.0000
  Co  Co6       1.0  0.54684  0.42791  0.74094  1.0000
  H   H1        1.0  0.63309  0.44372  0.97577  1.0000
  H   H2        1.0  0.17943  0.52686  0.55035  1.0000
  H   H3        1.0  0.65141  0.02475  0.46956  1.0000
  H   H4        1.0  0.36989  0.55281  0.02104  1.0000
  H   H5        1.0  0.81758  0.46777  0.44874  1.0000
  H   H6        1.0  0.34509  0.97787  0.52951  1.0000
  C   C1        1.0  0.92014  0.53459  0.08724  1.0000
  C   C2        1.0  0.38146  0.55011  0.46296  1.0000
  C   C3        1.0  0.82911  0.91280  0.44798  1.0000
  C   C4        1.0  0.08230  0.46429  0.90934  1.0000
  C   C5        1.0  0.61274  0.44197  0.53390  1.0000
  C   C6        1.0  0.16724  0.08966  0.55371  1.0000
  C   C7        1.0  0.79524  0.46870  0.98612  1.0000
  C   C8        1.0  0.31838  0.51294  0.52657  1.0000
  C   C9        1.0  0.80367  0.01403  0.48353  1.0000
  C   C10       1.0  0.20765  0.52852  0.01062  1.0000
  C   C11       1.0  0.67665  0.47990  0.47099  1.0000
  C   C12       1.0  0.19255  0.98849  0.51666  1.0000
  C   C13       1.0  0.13278  0.56532  0.10007  1.0000
  C   C14       1.0  0.56545  0.53254  0.43364  1.0000
  C   C15       1.0  0.02952  0.89957  0.46527  1.0000
  C   C16       1.0  0.87045  0.43266  0.89699  1.0000
  C   C17       1.0  0.42845  0.45961  0.56289  1.0000
  C   C18       1.0  0.96704  0.10265  0.53572  1.0000
  C   C19       1.0  0.82525  0.56378  0.17706  1.0000
  C   C20       1.0  0.25906  0.61250  0.43512  1.0000
  C   C21       1.0  0.64574  0.82315  0.38737  1.0000
  C   C22       1.0  0.18165  0.43731  0.82139  1.0000
  C   C23       1.0  0.74295  0.38339  0.56414  1.0000
  C   C24       1.0  0.35475  0.17709  0.61401  1.0000
  C   C25       1.0  0.85167  0.76001  0.56402  1.0000
  C   C26       1.0  0.09299  0.80440  0.24097  1.0000
  C   C27       1.0  0.29194  0.43654  0.19597  1.0000
  C   C28       1.0  0.15105  0.24513  0.45609  1.0000
  C   C29       1.0  0.89952  0.20677  0.75051  1.0000
  C   C30       1.0  0.70846  0.56080  0.79992  1.0000
  O   O1        1.0  0.94049  0.61814  0.27038  1.0000
  O   O2        1.0  0.32336  0.65304  0.38262  1.0000
  O   O3        1.0  0.66971  0.72989  0.34842  1.0000
  O   O4        1.0  0.06638  0.38748  0.72655  1.0000
  O   O5        1.0  0.67563  0.33951  0.61444  1.0000
  O   O6        1.0  0.33422  0.27150  0.66185  1.0000
  O   O7        1.0  0.26711  0.62800  0.19350  1.0000
  O   O8        1.0  0.63939  0.56377  0.37203  1.0000
  O   O9        1.0  0.07329  0.80636  0.43504  1.0000
  O   O10       1.0  0.73290  0.36996  0.80332  1.0000
  O   O11       1.0  0.35632  0.43063  0.62749  1.0000
  O   O12       1.0  0.92069  0.19657  0.56356  1.0000
  O   O13       1.0  0.63416  0.53046  0.15644  1.0000
  O   O14       1.0  0.10005  0.62471  0.46769  1.0000
  O   O15       1.0  0.47414  0.84343  0.37446  1.0000
  O   O16       1.0  0.37232  0.46648  0.84372  1.0000
  O   O17       1.0  0.90829  0.37903  0.53821  1.0000
  O   O18       1.0  0.52472  0.15491  0.61781  1.0000
  O   O19       1.0  0.83623  0.80568  0.64876  1.0000
  O   O20       1.0  0.03015  0.84265  0.19484  1.0000
  O   O21       1.0  0.19148  0.35257  0.15809  1.0000
  O   O22       1.0  0.16524  0.20096  0.37087  1.0000
  O   O23       1.0  0.96118  0.16679  0.79521  1.0000
  O   O24       1.0  0.80887  0.64520  0.83976  1.0000
