data_image0
_chemical_formula_structural       Zn8H48C16Se8N8
_chemical_formula_sum              "Zn8 H48 C16 Se8 N8"
_cell_length_a       6.43179
_cell_length_b       6.55828
_cell_length_c       22.0517
_cell_angle_alpha    90.0002
_cell_angle_beta     89.9996
_cell_angle_gamma    90.0003

_space_group_name_H-M_alt    "P 1"
_space_group_IT_number       1

loop_
  _space_group_symop_operation_xyz
  'x, y, z'

loop_
  _atom_site_type_symbol
  _atom_site_label
  _atom_site_symmetry_multiplicity
  _atom_site_fract_x
  _atom_site_fract_y
  _atom_site_fract_z
  _atom_site_occupancy
  Zn  Zn1       1.0  0.76957  0.59164  0.28760  1.0000
  Zn  Zn2       1.0  0.26957  0.90836  0.28760  1.0000
  Zn  Zn3       1.0  0.73043  0.59164  0.78760  1.0000
  Zn  Zn4       1.0  0.76957  0.09164  0.21240  1.0000
  Zn  Zn5       1.0  0.23042  0.40835  0.71240  1.0000
  Zn  Zn6       1.0  0.73042  0.09165  0.71240  1.0000
  Zn  Zn7       1.0  0.26957  0.40836  0.21240  1.0000
  Zn  Zn8       1.0  0.23043  0.90836  0.78760  1.0000
  H   H1        1.0  0.07182  0.45520  0.34928  1.0000
  H   H2        1.0  0.57183  0.04481  0.34928  1.0000
  H   H3        1.0  0.42817  0.45520  0.84928  1.0000
  H   H4        1.0  0.07183  0.95520  0.15072  1.0000
  H   H5        1.0  0.92816  0.54479  0.65072  1.0000
  H   H6        1.0  0.42817  0.95520  0.65072  1.0000
  H   H7        1.0  0.57183  0.54480  0.15071  1.0000
  H   H8        1.0  0.92817  0.04478  0.84929  1.0000
  H   H9        1.0  0.88633  0.28359  0.35750  1.0000
  H   H10       1.0  0.38632  0.21642  0.35750  1.0000
  H   H11       1.0  0.61366  0.28359  0.85750  1.0000
  H   H12       1.0  0.88633  0.78358  0.14250  1.0000
  H   H13       1.0  0.11366  0.71640  0.64250  1.0000
  H   H14       1.0  0.61367  0.78360  0.64250  1.0000
  H   H15       1.0  0.38633  0.71641  0.14250  1.0000
  H   H16       1.0  0.11366  0.21641  0.85750  1.0000
  H   H17       1.0  0.71070  0.49129  0.43151  1.0000
  H   H18       1.0  0.21071  0.00872  0.43151  1.0000
  H   H19       1.0  0.78930  0.49128  0.93151  1.0000
  H   H20       1.0  0.71071  0.99127  0.06849  1.0000
  H   H21       1.0  0.28928  0.50871  0.56849  1.0000
  H   H22       1.0  0.78929  0.99131  0.56849  1.0000
  H   H23       1.0  0.21070  0.50871  0.06849  1.0000
  H   H24       1.0  0.28931  0.00872  0.93151  1.0000
  H   H25       1.0  0.88710  0.69089  0.41585  1.0000
  H   H26       1.0  0.38711  0.80912  0.41585  1.0000
  H   H27       1.0  0.61289  0.69088  0.91585  1.0000
  H   H28       1.0  0.88710  0.19088  0.08415  1.0000
  H   H29       1.0  0.11288  0.30911  0.58415  1.0000
  H   H30       1.0  0.61287  0.19091  0.58415  1.0000
  H   H31       1.0  0.38711  0.30911  0.08415  1.0000
  H   H32       1.0  0.11291  0.80911  0.91585  1.0000
  H   H33       1.0  0.18175  0.47589  0.45508  1.0000
  H   H34       1.0  0.68176  0.02414  0.45508  1.0000
  H   H35       1.0  0.31825  0.47585  0.95508  1.0000
  H   H36       1.0  0.18176  0.97587  0.04492  1.0000
  H   H37       1.0  0.81823  0.52413  0.54492  1.0000
  H   H38       1.0  0.31824  0.97587  0.54492  1.0000
  H   H39       1.0  0.68176  0.52412  0.04492  1.0000
  H   H40       1.0  0.81826  0.02412  0.95509  1.0000
  H   H41       1.0  0.00347  0.28141  0.47472  1.0000
  H   H42       1.0  0.50347  0.21861  0.47472  1.0000
  H   H43       1.0  0.49655  0.28139  0.97472  1.0000
  H   H44       1.0  0.00348  0.78139  0.02528  1.0000
  H   H45       1.0  0.99653  0.71860  0.52528  1.0000
  H   H46       1.0  0.49655  0.78142  0.52528  1.0000
  H   H47       1.0  0.50347  0.71859  0.02528  1.0000
  H   H48       1.0  0.99654  0.21859  0.97472  1.0000
  C   C1        1.0  0.87391  0.52395  0.41996  1.0000
  C   C2        1.0  0.37392  0.97606  0.41996  1.0000
  C   C3        1.0  0.62609  0.52394  0.91996  1.0000
  C   C4        1.0  0.87392  0.02394  0.08004  1.0000
  C   C5        1.0  0.12607  0.47604  0.58004  1.0000
  C   C6        1.0  0.62607  0.02397  0.58004  1.0000
  C   C7        1.0  0.37391  0.47605  0.08004  1.0000
  C   C8        1.0  0.12610  0.97605  0.91996  1.0000
  C   C9        1.0  0.01989  0.44797  0.46957  1.0000
  C   C10       1.0  0.51990  0.05205  0.46957  1.0000
  C   C11       1.0  0.48011  0.44795  0.96957  1.0000
  C   C12       1.0  0.01991  0.94795  0.03043  1.0000
  C   C13       1.0  0.98009  0.55204  0.53043  1.0000
  C   C14       1.0  0.48010  0.94798  0.53043  1.0000
  C   C15       1.0  0.51990  0.55203  0.03043  1.0000
  C   C16       1.0  0.98012  0.05203  0.96957  1.0000
  Se  Se1       1.0  0.89568  0.94127  0.30658  1.0000
  Se  Se2       1.0  0.39568  0.55873  0.30658  1.0000
  Se  Se3       1.0  0.60432  0.94127  0.80658  1.0000
  Se  Se4       1.0  0.89568  0.44127  0.19342  1.0000
  Se  Se5       1.0  0.10432  0.05873  0.69342  1.0000
  Se  Se6       1.0  0.60431  0.44127  0.69342  1.0000
  Se  Se7       1.0  0.39568  0.05873  0.19342  1.0000
  Se  Se8       1.0  0.10432  0.55873  0.80658  1.0000
  N   N1        1.0  0.91594  0.43793  0.35962  1.0000
  N   N2        1.0  0.41594  0.06207  0.35962  1.0000
  N   N3        1.0  0.58406  0.43793  0.85962  1.0000
  N   N4        1.0  0.91594  0.93793  0.14038  1.0000
  N   N5        1.0  0.08406  0.56206  0.64038  1.0000
  N   N6        1.0  0.58406  0.93794  0.64038  1.0000
  N   N7        1.0  0.41594  0.56207  0.14038  1.0000
  N   N8        1.0  0.08406  0.06206  0.85962  1.0000
