data_image0
_chemical_formula_structural       H22Pb2C34S4N10
_chemical_formula_sum              "H22 Pb2 C34 S4 N10"
_cell_length_a       9.35798
_cell_length_b       9.35712
_cell_length_c       10.3061
_cell_angle_alpha    87.0276
_cell_angle_beta     87.0268
_cell_angle_gamma    69.1755

_space_group_name_H-M_alt    "P 1"
_space_group_IT_number       1

loop_
  _space_group_symop_operation_xyz
  'x, y, z'

loop_
  _atom_site_type_symbol
  _atom_site_label
  _atom_site_symmetry_multiplicity
  _atom_site_fract_x
  _atom_site_fract_y
  _atom_site_fract_z
  _atom_site_occupancy
  H   H1        1.0  0.72936  0.44706  0.58123  1.0000
  H   H2        1.0  0.55282  0.27055  0.91873  1.0000
  H   H3        1.0  0.27056  0.55289  0.41872  1.0000
  H   H4        1.0  0.44713  0.72939  0.08125  1.0000
  H   H5        1.0  0.75919  0.24068  0.74998  1.0000
  H   H6        1.0  0.24073  0.75928  0.24998  1.0000
  H   H7        1.0  0.72507  0.63249  0.48596  1.0000
  H   H8        1.0  0.36738  0.27492  0.01405  1.0000
  H   H9        1.0  0.27493  0.36745  0.51405  1.0000
  H   H10       1.0  0.63251  0.72505  0.98597  1.0000
  H   H11       1.0  0.67917  0.83051  0.30860  1.0000
  H   H12       1.0  0.16939  0.32093  0.19144  1.0000
  H   H13       1.0  0.32085  0.16943  0.69140  1.0000
  H   H14       1.0  0.83054  0.67912  0.80861  1.0000
  H   H15       1.0  0.41115  0.02141  0.28175  1.0000
  H   H16       1.0  0.97853  0.58899  0.21818  1.0000
  H   H17       1.0  0.58889  0.97852  0.71818  1.0000
  H   H18       1.0  0.02140  0.41106  0.78182  1.0000
  H   H19       1.0  0.20922  0.01496  0.44626  1.0000
  H   H20       1.0  0.98501  0.79086  0.05362  1.0000
  H   H21       1.0  0.79076  0.98501  0.55364  1.0000
  H   H22       1.0  0.01493  0.20915  0.94632  1.0000
  Pb  Pb1       1.0  0.14344  0.85671  0.75006  1.0000
  Pb  Pb2       1.0  0.85669  0.14333  0.25003  1.0000
  C   C1        1.0  0.76366  0.99722  0.96124  1.0000
  C   C2        1.0  0.00281  0.23660  0.53887  1.0000
  C   C3        1.0  0.23653  0.00291  0.03883  1.0000
  C   C4        1.0  0.99737  0.76361  0.46132  1.0000
  C   C5        1.0  0.50791  0.59102  0.65957  1.0000
  C   C6        1.0  0.40891  0.49205  0.84041  1.0000
  C   C7        1.0  0.49204  0.40895  0.34040  1.0000
  C   C8        1.0  0.59102  0.50793  0.15960  1.0000
  C   C9        1.0  0.64030  0.45950  0.65646  1.0000
  C   C10       1.0  0.54037  0.35962  0.84351  1.0000
  C   C11       1.0  0.35963  0.54042  0.34350  1.0000
  C   C12       1.0  0.45956  0.64034  0.15648  1.0000
  C   C13       1.0  0.65674  0.34315  0.74999  1.0000
  C   C14       1.0  0.34320  0.65679  0.24999  1.0000
  C   C15       1.0  0.48857  0.71560  0.55915  1.0000
  C   C16       1.0  0.28433  0.51144  0.94083  1.0000
  C   C17       1.0  0.51139  0.28435  0.44083  1.0000
  C   C18       1.0  0.71563  0.48855  0.05917  1.0000
  C   C19       1.0  0.61076  0.71701  0.47470  1.0000
  C   C20       1.0  0.28292  0.38927  0.02528  1.0000
  C   C21       1.0  0.38922  0.28297  0.52527  1.0000
  C   C22       1.0  0.71702  0.61072  0.97473  1.0000
  C   C23       1.0  0.58534  0.82830  0.37494  1.0000
  C   C24       1.0  0.17162  0.41474  0.12506  1.0000
  C   C25       1.0  0.41469  0.17166  0.62504  1.0000
  C   C26       1.0  0.82833  0.58528  0.87496  1.0000
  C   C27       1.0  0.43864  0.93553  0.36094  1.0000
  C   C28       1.0  0.06441  0.56144  0.13903  1.0000
  C   C29       1.0  0.56137  0.06441  0.63901  1.0000
  C   C30       1.0  0.93555  0.43858  0.86097  1.0000
  C   C31       1.0  0.32457  0.93097  0.45166  1.0000
  C   C32       1.0  0.06898  0.67549  0.04828  1.0000
  C   C33       1.0  0.67540  0.06899  0.54825  1.0000
  C   C34       1.0  0.93098  0.32450  0.95171  1.0000
  S   S1        1.0  0.65236  0.03075  0.09260  1.0000
  S   S2        1.0  0.96912  0.34778  0.40741  1.0000
  S   S3        1.0  0.34790  0.96918  0.90749  1.0000
  S   S4        1.0  0.03091  0.65228  0.59265  1.0000
  N   N1        1.0  0.84289  0.97205  0.86529  1.0000
  N   N2        1.0  0.02832  0.15728  0.63477  1.0000
  N   N3        1.0  0.15720  0.02829  0.13472  1.0000
  N   N4        1.0  0.97201  0.84281  0.36535  1.0000
  N   N5        1.0  0.39434  0.60563  0.74998  1.0000
  N   N6        1.0  0.60563  0.39435  0.25001  1.0000
  N   N7        1.0  0.34864  0.82541  0.54912  1.0000
  N   N8        1.0  0.17456  0.65137  0.95081  1.0000
  N   N9        1.0  0.65133  0.17456  0.45081  1.0000
  N   N10       1.0  0.82539  0.34860  0.04919  1.0000
