data_image0
_chemical_formula_structural       H16Pb2C28S4N8
_chemical_formula_sum              "H16 Pb2 C28 S4 N8"
_cell_length_a       6.75709
_cell_length_b       10.7789
_cell_length_c       10.7784
_cell_angle_alpha    77.339
_cell_angle_beta     74.4494
_cell_angle_gamma    74.4265

_space_group_name_H-M_alt    "P 1"
_space_group_IT_number       1

loop_
  _space_group_symop_operation_xyz
  'x, y, z'

loop_
  _atom_site_type_symbol
  _atom_site_label
  _atom_site_symmetry_multiplicity
  _atom_site_fract_x
  _atom_site_fract_y
  _atom_site_fract_z
  _atom_site_occupancy
  H   H1        1.0  0.59146  0.04287  0.58399  1.0000
  H   H2        1.0  0.90843  0.41589  0.95701  1.0000
  H   H3        1.0  0.40859  0.95713  0.41593  1.0000
  H   H4        1.0  0.09184  0.58397  0.04308  1.0000
  H   H5        1.0  0.70401  0.11136  0.34235  1.0000
  H   H6        1.0  0.79605  0.65760  0.88867  1.0000
  H   H7        1.0  0.29584  0.88866  0.65750  1.0000
  H   H8        1.0  0.20404  0.34230  0.11146  1.0000
  H   H9        1.0  0.57263  0.34247  0.24607  1.0000
  H   H10       1.0  0.92736  0.75398  0.65764  1.0000
  H   H11       1.0  0.42720  0.65762  0.75391  1.0000
  H   H12       1.0  0.07263  0.24593  0.34246  1.0000
  H   H13       1.0  0.37032  0.56955  0.28227  1.0000
  H   H14       1.0  0.12957  0.71786  0.43064  1.0000
  H   H15       1.0  0.62949  0.43053  0.71778  1.0000
  H   H16       1.0  0.87020  0.28215  0.56953  1.0000
  Pb  Pb1       1.0  0.24996  0.14355  0.85619  1.0000
  Pb  Pb2       1.0  0.74991  0.85651  0.14345  1.0000
  C   C1        1.0  0.87752  0.03181  0.76413  1.0000
  C   C2        1.0  0.62230  0.23580  0.96808  1.0000
  C   C3        1.0  0.12273  0.96813  0.23577  1.0000
  C   C4        1.0  0.37771  0.76412  0.03197  1.0000
  C   C5        1.0  0.53221  0.14192  0.53779  1.0000
  C   C6        1.0  0.96779  0.46215  0.85804  1.0000
  C   C7        1.0  0.46777  0.85809  0.46214  1.0000
  C   C8        1.0  0.03241  0.53780  0.14208  1.0000
  C   C9        1.0  0.59662  0.18123  0.40291  1.0000
  C   C10       1.0  0.90338  0.59705  0.81880  1.0000
  C   C11       1.0  0.40336  0.81881  0.59702  1.0000
  C   C12       1.0  0.09662  0.40287  0.18131  1.0000
  C   C13       1.0  0.52359  0.30918  0.35040  1.0000
  C   C14       1.0  0.97638  0.64961  0.69090  1.0000
  C   C15       1.0  0.47627  0.69088  0.64957  1.0000
  C   C16       1.0  0.02367  0.35032  0.30922  1.0000
  C   C17       1.0  0.38730  0.39727  0.43239  1.0000
  C   C18       1.0  0.11259  0.56763  0.60279  1.0000
  C   C19       1.0  0.61257  0.60277  0.56760  1.0000
  C   C20       1.0  0.88735  0.43235  0.39730  1.0000
  C   C21       1.0  0.32308  0.34731  0.56689  1.0000
  C   C22       1.0  0.17684  0.43309  0.65268  1.0000
  C   C23       1.0  0.67688  0.65271  0.43309  1.0000
  C   C24       1.0  0.82313  0.56688  0.34736  1.0000
  C   C25       1.0  0.31590  0.53254  0.38524  1.0000
  C   C26       1.0  0.18406  0.61487  0.46758  1.0000
  C   C27       1.0  0.68404  0.46753  0.61482  1.0000
  C   C28       1.0  0.81582  0.38515  0.53251  1.0000
  S   S1        1.0  0.70155  0.94318  0.81924  1.0000
  S   S2        1.0  0.79838  0.18087  0.05670  1.0000
  S   S3        1.0  0.29858  0.05685  0.18068  1.0000
  S   S4        1.0  0.20166  0.81916  0.94335  1.0000
  N   N1        1.0  0.00851  0.09448  0.72396  1.0000
  N   N2        1.0  0.49148  0.27601  0.90522  1.0000
  N   N3        1.0  0.99155  0.90561  0.27596  1.0000
  N   N4        1.0  0.50881  0.72409  0.09464  1.0000
  N   N5        1.0  0.39809  0.22159  0.61673  1.0000
  N   N6        1.0  0.10183  0.38320  0.77833  1.0000
  N   N7        1.0  0.60193  0.77841  0.38319  1.0000
  N   N8        1.0  0.89821  0.61677  0.22171  1.0000
