data_image0
_chemical_formula_structural       Mn2H22C18N6Cl4O4
_chemical_formula_sum              "Mn2 H22 C18 N6 Cl4 O4"
_cell_length_a       6.68405
_cell_length_b       10.3176
_cell_length_c       10.3177
_cell_angle_alpha    60.5064
_cell_angle_beta     73.5856
_cell_angle_gamma    73.5846

_space_group_name_H-M_alt    "P 1"
_space_group_IT_number       1

loop_
  _space_group_symop_operation_xyz
  'x, y, z'

loop_
  _atom_site_type_symbol
  _atom_site_label
  _atom_site_symmetry_multiplicity
  _atom_site_fract_x
  _atom_site_fract_y
  _atom_site_fract_z
  _atom_site_occupancy
  Mn  Mn1       1.0  0.25000  0.11107  0.88893  1.0000
  Mn  Mn2       1.0  0.75000  0.88893  0.11107  1.0000
  H   H1        1.0  0.32688  0.67172  0.73259  1.0000
  H   H2        1.0  0.17313  0.26741  0.32828  1.0000
  H   H3        1.0  0.67313  0.32828  0.26741  1.0000
  H   H4        1.0  0.82688  0.73259  0.67172  1.0000
  H   H5        1.0  0.35348  0.54906  0.92517  1.0000
  H   H6        1.0  0.14653  0.07482  0.45095  1.0000
  H   H7        1.0  0.64652  0.45094  0.07482  1.0000
  H   H8        1.0  0.85348  0.92518  0.54906  1.0000
  H   H9        1.0  0.09940  0.62614  0.87435  1.0000
  H   H10       1.0  0.40060  0.12565  0.37387  1.0000
  H   H11       1.0  0.90060  0.37386  0.12565  1.0000
  H   H12       1.0  0.59940  0.87435  0.62613  1.0000
  H   H13       1.0  0.25560  0.70139  0.53786  1.0000
  H   H14       1.0  0.24439  0.46215  0.29861  1.0000
  H   H15       1.0  0.74440  0.29860  0.46215  1.0000
  H   H16       1.0  0.75561  0.53785  0.70139  1.0000
  H   H17       1.0  0.24999  0.70164  0.29837  1.0000
  H   H18       1.0  0.75001  0.29837  0.70163  1.0000
  H   H19       1.0  0.32233  0.18353  0.12276  1.0000
  H   H20       1.0  0.17768  0.87724  0.81647  1.0000
  H   H21       1.0  0.67767  0.81647  0.87724  1.0000
  H   H22       1.0  0.82233  0.12276  0.18352  1.0000
  C   C1        1.0  0.26819  0.44694  0.81635  1.0000
  C   C2        1.0  0.23181  0.18366  0.55305  1.0000
  C   C3        1.0  0.73181  0.55305  0.18365  1.0000
  C   C4        1.0  0.76819  0.81635  0.44694  1.0000
  C   C5        1.0  0.25520  0.45955  0.67021  1.0000
  C   C6        1.0  0.24479  0.32980  0.54046  1.0000
  C   C7        1.0  0.74479  0.54046  0.32980  1.0000
  C   C8        1.0  0.75520  0.67020  0.45954  1.0000
  C   C9        1.0  0.25250  0.59664  0.53766  1.0000
  C   C10       1.0  0.24748  0.46235  0.40336  1.0000
  C   C11       1.0  0.74749  0.40336  0.46234  1.0000
  C   C12       1.0  0.75252  0.53766  0.59664  1.0000
  C   C13       1.0  0.25000  0.59682  0.40318  1.0000
  C   C14       1.0  0.75000  0.40318  0.59682  1.0000
  C   C15       1.0  0.26311  0.58076  0.83732  1.0000
  C   C16       1.0  0.23689  0.16268  0.41924  1.0000
  C   C17       1.0  0.73689  0.41924  0.16268  1.0000
  C   C18       1.0  0.76311  0.83732  0.58076  1.0000
  N   N1        1.0  0.28463  0.30977  0.92410  1.0000
  N   N2        1.0  0.21538  0.07591  0.69022  1.0000
  N   N3        1.0  0.71537  0.69022  0.07590  1.0000
  N   N4        1.0  0.78462  0.92410  0.30977  1.0000
  N   N5        1.0  0.25000  0.33014  0.66987  1.0000
  N   N6        1.0  0.75000  0.66986  0.33013  1.0000
  Cl  Cl1       1.0  0.63795  0.03078  0.82023  1.0000
  Cl  Cl2       1.0  0.86206  0.17977  0.96922  1.0000
  Cl  Cl3       1.0  0.36205  0.96922  0.17977  1.0000
  Cl  Cl4       1.0  0.13794  0.82022  0.03078  1.0000
  O   O1        1.0  0.29262  0.29712  0.06136  1.0000
  O   O2        1.0  0.20739  0.93864  0.70288  1.0000
  O   O3        1.0  0.70738  0.70287  0.93864  1.0000
  O   O4        1.0  0.79262  0.06136  0.29712  1.0000
