data_image0
_chemical_formula_structural       Ni2H28C24O16
_chemical_formula_sum              "Ni2 H28 C24 O16"
_cell_length_a       6.24166
_cell_length_b       9.64924
_cell_length_c       10.9204
_cell_angle_alpha    72.6504
_cell_angle_beta     80.377
_cell_angle_gamma    82.1646

_space_group_name_H-M_alt    "P 1"
_space_group_IT_number       1

loop_
  _space_group_symop_operation_xyz
  'x, y, z'

loop_
  _atom_site_type_symbol
  _atom_site_label
  _atom_site_symmetry_multiplicity
  _atom_site_fract_x
  _atom_site_fract_y
  _atom_site_fract_z
  _atom_site_occupancy
  Ni  Ni1       1.0  0.96685  0.25761  0.47959  1.0000
  Ni  Ni2       1.0  0.03315  0.74238  0.52042  1.0000
  H   H1        1.0  0.11165  0.65116  0.14936  1.0000
  H   H2        1.0  0.88831  0.34886  0.85063  1.0000
  H   H3        1.0  0.76439  0.44058  0.17250  1.0000
  H   H4        1.0  0.23557  0.55943  0.82749  1.0000
  H   H5        1.0  0.90607  0.64028  0.98745  1.0000
  H   H6        1.0  0.09388  0.35969  0.01256  1.0000
  H   H7        1.0  0.83917  0.87714  0.81914  1.0000
  H   H8        1.0  0.16085  0.12286  0.18086  1.0000
  H   H9        1.0  0.18579  0.08938  0.80687  1.0000
  H   H10       1.0  0.81424  0.91064  0.19315  1.0000
  H   H11       1.0  0.04546  0.88465  0.98748  1.0000
  H   H12       1.0  0.95455  0.11538  0.01252  1.0000
  H   H13       1.0  0.33590  0.17270  0.42545  1.0000
  H   H14       1.0  0.66408  0.82728  0.57456  1.0000
  H   H15       1.0  0.20740  0.03861  0.43192  1.0000
  H   H16       1.0  0.79261  0.96142  0.56807  1.0000
  H   H17       1.0  0.75315  0.49876  0.47917  1.0000
  H   H18       1.0  0.24681  0.50125  0.52083  1.0000
  H   H19       1.0  0.60911  0.35914  0.55601  1.0000
  H   H20       1.0  0.39084  0.64089  0.44398  1.0000
  H   H21       1.0  0.71212  0.23803  0.32343  1.0000
  H   H22       1.0  0.28786  0.76196  0.67659  1.0000
  H   H23       1.0  0.83491  0.08201  0.37140  1.0000
  H   H24       1.0  0.16506  0.91801  0.62860  1.0000
  H   H25       1.0  0.22394  0.29088  0.65102  1.0000
  H   H26       1.0  0.77607  0.70911  0.34896  1.0000
  H   H27       1.0  0.00381  0.40742  0.65232  1.0000
  H   H28       1.0  0.99622  0.59258  0.34768  1.0000
  C   C1        1.0  0.28620  0.64990  0.11592  1.0000
  C   C2        1.0  0.71378  0.35010  0.88408  1.0000
  C   C3        1.0  0.42655  0.53369  0.17345  1.0000
  C   C4        1.0  0.57349  0.46631  0.82654  1.0000
  C   C5        1.0  0.65334  0.53149  0.12706  1.0000
  C   C6        1.0  0.34668  0.46849  0.87292  1.0000
  C   C7        1.0  0.73271  0.64341  0.02482  1.0000
  C   C8        1.0  0.26729  0.35657  0.97517  1.0000
  C   C9        1.0  0.66677  0.88013  0.85871  1.0000
  C   C10       1.0  0.33322  0.11987  0.14129  1.0000
  C   C11       1.0  0.52351  0.99657  0.80415  1.0000
  C   C12       1.0  0.47649  0.00344  0.19587  1.0000
  C   C13       1.0  0.29729  0.99844  0.85188  1.0000
  C   C14       1.0  0.70272  0.00156  0.14812  1.0000
  C   C15       1.0  0.21937  0.88497  0.95202  1.0000
  C   C16       1.0  0.78063  0.11505  0.04797  1.0000
  C   C17       1.0  0.36308  0.76629  0.01185  1.0000
  C   C18       1.0  0.63692  0.23370  0.98816  1.0000
  C   C19       1.0  0.59157  0.76374  0.96442  1.0000
  C   C20       1.0  0.40844  0.23623  0.03558  1.0000
  C   C21       1.0  0.33482  0.41090  0.28075  1.0000
  C   C22       1.0  0.66517  0.58911  0.71924  1.0000
  C   C23       1.0  0.60560  0.12139  0.69571  1.0000
  C   C24       1.0  0.39444  0.87864  0.30429  1.0000
  O   O1        1.0  0.13356  0.42771  0.32804  1.0000
  O   O2        1.0  0.86642  0.57226  0.67195  1.0000
  O   O3        1.0  0.45670  0.29408  0.31995  1.0000
  O   O4        1.0  0.54329  0.70592  0.68006  1.0000
  O   O5        1.0  0.48667  0.24176  0.67110  1.0000
  O   O6        1.0  0.51334  0.75823  0.32891  1.0000
  O   O7        1.0  0.79530  0.10067  0.63289  1.0000
  O   O8        1.0  0.20472  0.89928  0.36711  1.0000
  O   O9        1.0  0.22519  0.10419  0.48464  1.0000
  O   O10       1.0  0.77480  0.89580  0.51537  1.0000
  O   O11       1.0  0.70912  0.40605  0.47505  1.0000
  O   O12       1.0  0.29093  0.59393  0.52498  1.0000
  O   O13       1.0  0.86004  0.18587  0.33971  1.0000
  O   O14       1.0  0.13997  0.81415  0.66026  1.0000
  O   O15       1.0  0.09469  0.33987  0.60671  1.0000
  O   O16       1.0  0.90531  0.66014  0.39328  1.0000
