data_image0
_chemical_formula_structural       Cu2H8C10N14Cl2
_chemical_formula_sum              "Cu2 H8 C10 N14 Cl2"
_cell_length_a       5.71708
_cell_length_b       8.3575
_cell_length_c       9.96116
_cell_angle_alpha    81.4544
_cell_angle_beta     75.8774
_cell_angle_gamma    88.3517

_space_group_name_H-M_alt    "P 1"
_space_group_IT_number       1

loop_
  _space_group_symop_operation_xyz
  'x, y, z'

loop_
  _atom_site_type_symbol
  _atom_site_label
  _atom_site_symmetry_multiplicity
  _atom_site_fract_x
  _atom_site_fract_y
  _atom_site_fract_z
  _atom_site_occupancy
  Cu  Cu1       1.0  0.21406  0.02925  0.06847  1.0000
  Cu  Cu2       1.0  0.78596  0.97075  0.93153  1.0000
  H   H1        1.0  0.94067  0.28005  0.51029  1.0000
  H   H2        1.0  0.05929  0.71997  0.48970  1.0000
  H   H3        1.0  0.28885  0.47763  0.45872  1.0000
  H   H4        1.0  0.71111  0.52239  0.54128  1.0000
  H   H5        1.0  0.60162  0.48621  0.23119  1.0000
  H   H6        1.0  0.39838  0.51379  0.76882  1.0000
  H   H7        1.0  0.55304  0.29819  0.06515  1.0000
  H   H8        1.0  0.44697  0.70180  0.93487  1.0000
  C   C1        1.0  0.07426  0.18812  0.31608  1.0000
  C   C2        1.0  0.92573  0.81189  0.68392  1.0000
  C   C3        1.0  0.08193  0.28955  0.41393  1.0000
  C   C4        1.0  0.91805  0.71047  0.58607  1.0000
  C   C5        1.0  0.27401  0.39796  0.38410  1.0000
  C   C6        1.0  0.72598  0.60205  0.61590  1.0000
  C   C7        1.0  0.44785  0.40373  0.25785  1.0000
  C   C8        1.0  0.55215  0.59627  0.74215  1.0000
  C   C9        1.0  0.42453  0.29960  0.16554  1.0000
  C   C10       1.0  0.57549  0.70040  0.83447  1.0000
  N   N1        1.0  0.53873  0.12104  0.87780  1.0000
  N   N2        1.0  0.46130  0.87895  0.12220  1.0000
  N   N3        1.0  0.53319  0.16956  0.75807  1.0000
  N   N4        1.0  0.46683  0.83042  0.24193  1.0000
  N   N5        1.0  0.52018  0.22000  0.64440  1.0000
  N   N6        1.0  0.47981  0.77999  0.35561  1.0000
  N   N7        1.0  0.03450  0.84760  0.01835  1.0000
  N   N8        1.0  0.96548  0.15240  0.98165  1.0000
  N   N9        1.0  0.01417  0.70932  0.07897  1.0000
  N   N10       1.0  0.98582  0.29067  0.92101  1.0000
  N   N11       1.0  0.99986  0.57686  0.13553  1.0000
  N   N12       1.0  0.00016  0.42312  0.86445  1.0000
  N   N13       1.0  0.24107  0.19201  0.19466  1.0000
  N   N14       1.0  0.75895  0.80799  0.80535  1.0000
  Cl  Cl1       1.0  0.84728  0.04625  0.34929  1.0000
  Cl  Cl2       1.0  0.15271  0.95376  0.65071  1.0000
