data_image0
_chemical_formula_structural       Cu2H12C12S4Br4N4
_chemical_formula_sum              "Cu2 H12 C12 S4 Br4 N4"
_cell_length_a       3.93191
_cell_length_b       7.43599
_cell_length_c       17.4956
_cell_angle_alpha    93.3038
_cell_angle_beta     89.9828
_cell_angle_gamma    89.9736

_space_group_name_H-M_alt    "P 1"
_space_group_IT_number       1

loop_
  _space_group_symop_operation_xyz
  'x, y, z'

loop_
  _atom_site_type_symbol
  _atom_site_label
  _atom_site_symmetry_multiplicity
  _atom_site_fract_x
  _atom_site_fract_y
  _atom_site_fract_z
  _atom_site_occupancy
  Cu  Cu1       1.0  0.50001  0.50000  1.00000  1.0000
  Cu  Cu2       1.0  0.00000  0.50000  0.50000  1.0000
  H   H1        1.0  0.70020  0.89295  0.96375  1.0000
  H   H2        1.0  0.20026  0.10694  0.53621  1.0000
  H   H3        1.0  0.29981  0.10705  0.03625  1.0000
  H   H4        1.0  0.79975  0.89305  0.46379  1.0000
  H   H5        1.0  0.33421  0.70935  0.72564  1.0000
  H   H6        1.0  0.83420  0.29071  0.77438  1.0000
  H   H7        1.0  0.66576  0.29067  0.27436  1.0000
  H   H8        1.0  0.16580  0.70928  0.22562  1.0000
  H   H9        1.0  0.30294  0.45419  0.82941  1.0000
  H   H10       1.0  0.80287  0.54588  0.67061  1.0000
  H   H11       1.0  0.69706  0.54581  0.17059  1.0000
  H   H12       1.0  0.19712  0.45411  0.32939  1.0000
  C   C1        1.0  0.59921  0.82136  0.91289  1.0000
  C   C2        1.0  0.09926  0.17858  0.58709  1.0000
  C   C3        1.0  0.40080  0.17864  0.08711  1.0000
  C   C4        1.0  0.90075  0.82142  0.41291  1.0000
  C   C5        1.0  0.40389  0.72073  0.78591  1.0000
  C   C6        1.0  0.90389  0.27930  0.71409  1.0000
  C   C7        1.0  0.59608  0.27929  0.21409  1.0000
  C   C8        1.0  0.09612  0.72070  0.28591  1.0000
  C   C9        1.0  0.39207  0.59182  0.83845  1.0000
  C   C10       1.0  0.89203  0.40820  0.66156  1.0000
  C   C11       1.0  0.60793  0.40819  0.16155  1.0000
  C   C12       1.0  0.10798  0.59180  0.33844  1.0000
  S   S1        1.0  0.55699  0.91906  0.82768  1.0000
  S   S2        1.0  0.05705  0.08089  0.67230  1.0000
  S   S3        1.0  0.44300  0.08095  0.17232  1.0000
  S   S4        1.0  0.94296  0.91910  0.32770  1.0000
  Br  Br1       1.0  0.89109  0.27995  0.93117  1.0000
  Br  Br2       1.0  0.39079  0.71991  0.56883  1.0000
  Br  Br3       1.0  0.10892  0.72005  0.06883  1.0000
  Br  Br4       1.0  0.60919  0.28009  0.43117  1.0000
  N   N1        1.0  0.50265  0.65086  0.91039  1.0000
  N   N2        1.0  0.00264  0.34912  0.58961  1.0000
  N   N3        1.0  0.49736  0.34914  0.08961  1.0000
  N   N4        1.0  0.99737  0.65088  0.41039  1.0000
