data_image0
_chemical_formula_structural       Na2Zn2H48C30S4N6O4
_chemical_formula_sum              "Na2 Zn2 H48 C30 S4 N6 O4"
_cell_length_a       7.69817
_cell_length_b       9.29075
_cell_length_c       15.1325
_cell_angle_alpha    75.4431
_cell_angle_beta     77.0306
_cell_angle_gamma    78.5469

_space_group_name_H-M_alt    "P 1"
_space_group_IT_number       1

loop_
  _space_group_symop_operation_xyz
  'x, y, z'

loop_
  _atom_site_type_symbol
  _atom_site_label
  _atom_site_symmetry_multiplicity
  _atom_site_fract_x
  _atom_site_fract_y
  _atom_site_fract_z
  _atom_site_occupancy
  Na  Na1       1.0  0.81445  0.01936  0.07427  1.0000
  Na  Na2       1.0  0.18556  0.98064  0.92573  1.0000
  Zn  Zn1       1.0  0.41644  0.01239  0.26906  1.0000
  Zn  Zn2       1.0  0.58357  0.98760  0.73094  1.0000
  H   H1        1.0  0.41992  0.56112  0.26657  1.0000
  H   H2        1.0  0.58009  0.43887  0.73343  1.0000
  H   H3        1.0  0.46634  0.63177  0.35607  1.0000
  H   H4        1.0  0.53368  0.36821  0.64394  1.0000
  H   H5        1.0  0.08530  0.77907  0.20827  1.0000
  H   H6        1.0  0.91471  0.22093  0.79172  1.0000
  H   H7        1.0  0.30390  0.75438  0.14155  1.0000
  H   H8        1.0  0.69611  0.24561  0.85844  1.0000
  H   H9        1.0  0.08406  0.27202  0.11575  1.0000
  H   H10       1.0  0.91595  0.72798  0.88425  1.0000
  H   H11       1.0  0.31964  0.26422  0.07390  1.0000
  H   H12       1.0  0.68037  0.73577  0.92610  1.0000
  H   H13       1.0  0.11716  0.31648  0.26506  1.0000
  H   H14       1.0  0.88286  0.68351  0.73494  1.0000
  H   H15       1.0  0.22186  0.44851  0.17267  1.0000
  H   H16       1.0  0.77816  0.55147  0.82734  1.0000
  H   H17       1.0  0.13587  0.65311  0.38919  1.0000
  H   H18       1.0  0.86415  0.34688  0.61080  1.0000
  H   H19       1.0  0.03158  0.83479  0.34258  1.0000
  H   H20       1.0  0.96840  0.16521  0.65742  1.0000
  H   H21       1.0  0.07160  0.67632  0.55097  1.0000
  H   H22       1.0  0.92838  0.32369  0.44902  1.0000
  H   H23       1.0  0.11905  0.80322  0.67013  1.0000
  H   H24       1.0  0.88090  0.19680  0.32987  1.0000
  H   H25       1.0  0.26789  0.03652  0.61545  1.0000
  H   H26       1.0  0.73207  0.96349  0.38457  1.0000
  H   H27       1.0  0.36846  0.12731  0.44326  1.0000
  H   H28       1.0  0.63152  0.87269  0.55675  1.0000
  H   H29       1.0  0.73912  0.46040  0.23642  1.0000
  H   H30       1.0  0.26089  0.53960  0.76357  1.0000
  H   H31       1.0  0.77905  0.53861  0.32515  1.0000
  H   H32       1.0  0.22095  0.46140  0.67485  1.0000
  H   H33       1.0  0.90824  0.57930  0.21099  1.0000
  H   H34       1.0  0.09176  0.42071  0.78901  1.0000
  H   H35       1.0  0.58973  0.63778  0.10124  1.0000
  H   H36       1.0  0.41028  0.36222  0.89876  1.0000
  H   H37       1.0  0.77710  0.73328  0.08106  1.0000
  H   H38       1.0  0.22290  0.26672  0.91894  1.0000
  H   H39       1.0  0.55535  0.83512  0.09366  1.0000
  H   H40       1.0  0.44467  0.16488  0.90633  1.0000
  H   H41       1.0  0.59801  0.27327  0.12242  1.0000
  H   H42       1.0  0.40200  0.72673  0.87758  1.0000
  H   H43       1.0  0.66545  0.48778  0.99328  1.0000
  H   H44       1.0  0.33455  0.51223  0.00672  1.0000
  H   H45       1.0  0.85766  0.36009  0.95518  1.0000
  H   H46       1.0  0.14234  0.63990  0.04482  1.0000
  H   H47       1.0  0.83572  0.41312  0.06301  1.0000
  H   H48       1.0  0.16428  0.58689  0.93699  1.0000
  C   C1        1.0  0.63342  0.69849  0.22415  1.0000
  C   C2        1.0  0.36660  0.30151  0.77585  1.0000
  C   C3        1.0  0.44974  0.66247  0.28299  1.0000
  C   C4        1.0  0.55026  0.33753  0.71701  1.0000
  C   C5        1.0  0.21854  0.81659  0.19237  1.0000
  C   C6        1.0  0.78147  0.18341  0.80763  1.0000
  C   C7        1.0  0.18954  0.98287  0.14365  1.0000
  C   C8        1.0  0.81045  0.01713  0.85635  1.0000
  C   C9        1.0  0.21698  0.23821  0.13705  1.0000
  C   C10       1.0  0.78304  0.76178  0.86295  1.0000
  C   C11       1.0  0.23097  0.32853  0.20630  1.0000
  C   C12       1.0  0.76905  0.67147  0.79370  1.0000
  C   C13       1.0  0.16010  0.77091  0.36084  1.0000
  C   C14       1.0  0.83988  0.22909  0.63917  1.0000
  C   C15       1.0  0.19918  0.83368  0.43608  1.0000
  C   C16       1.0  0.80086  0.16631  0.56392  1.0000
  C   C17       1.0  0.13911  0.77556  0.53020  1.0000
  C   C18       1.0  0.86085  0.22444  0.46980  1.0000
  C   C19       1.0  0.16408  0.84693  0.59623  1.0000
  C   C20       1.0  0.83590  0.15306  0.40377  1.0000
  C   C21       1.0  0.24629  0.97608  0.56649  1.0000
  C   C22       1.0  0.75363  0.02394  0.43351  1.0000
  C   C23       1.0  0.30337  0.02690  0.47171  1.0000
  C   C24       1.0  0.69663  0.97312  0.52829  1.0000
  C   C25       1.0  0.77362  0.56073  0.25092  1.0000
  C   C26       1.0  0.22639  0.43927  0.74908  1.0000
  C   C27       1.0  0.63816  0.72855  0.11933  1.0000
  C   C28       1.0  0.36185  0.27146  0.88067  1.0000
  C   C29       1.0  0.76056  0.38671  0.01641  1.0000
  C   C30       1.0  0.23944  0.61329  0.98358  1.0000
  S   S1        1.0  0.69481  0.86216  0.25226  1.0000
  S   S2        1.0  0.30521  0.13784  0.74774  1.0000
  S   S3        1.0  0.44157  0.27009  0.25197  1.0000
  S   S4        1.0  0.55844  0.72990  0.74803  1.0000
  N   N1        1.0  0.29736  0.78553  0.27620  1.0000
  N   N2        1.0  0.70263  0.21447  0.72380  1.0000
  N   N3        1.0  0.24478  0.07825  0.17827  1.0000
  N   N4        1.0  0.75524  0.92175  0.82172  1.0000
  N   N5        1.0  0.28256  0.95623  0.40836  1.0000
  N   N6        1.0  0.71742  0.04379  0.59164  1.0000
  O   O1        1.0  0.11126  0.01534  0.07322  1.0000
  O   O2        1.0  0.88874  0.98467  0.92678  1.0000
  O   O3        1.0  0.67072  0.25996  0.05939  1.0000
  O   O4        1.0  0.32929  0.74004  0.94061  1.0000
