data_image0
_chemical_formula_structural       Cu2Mo8H22C24N4O26
_chemical_formula_sum              "Cu2 Mo8 H22 C24 N4 O26"
_cell_length_a       8.33743
_cell_length_b       10.8007
_cell_length_c       12.4736
_cell_angle_alpha    110.455
_cell_angle_beta     106.665
_cell_angle_gamma    96.9783

_space_group_name_H-M_alt    "P 1"
_space_group_IT_number       1

loop_
  _space_group_symop_operation_xyz
  'x, y, z'

loop_
  _atom_site_type_symbol
  _atom_site_label
  _atom_site_symmetry_multiplicity
  _atom_site_fract_x
  _atom_site_fract_y
  _atom_site_fract_z
  _atom_site_occupancy
  Cu  Cu1       1.0  0.21935  0.88708  0.70299  1.0000
  Cu  Cu2       1.0  0.78065  0.11292  0.29701  1.0000
  Mo  Mo1       1.0  0.01294  0.55808  0.65006  1.0000
  Mo  Mo2       1.0  0.98706  0.44192  0.34994  1.0000
  Mo  Mo3       1.0  0.62457  0.57141  0.65535  1.0000
  Mo  Mo4       1.0  0.37543  0.42859  0.34464  1.0000
  Mo  Mo5       1.0  0.58880  0.24954  0.51372  1.0000
  Mo  Mo6       1.0  0.41119  0.75046  0.48628  1.0000
  Mo  Mo7       1.0  0.19632  0.26672  0.50897  1.0000
  Mo  Mo8       1.0  0.80369  0.73328  0.49103  1.0000
  H   H1        1.0  0.42982  0.11602  0.71682  1.0000
  H   H2        1.0  0.57018  0.88398  0.28318  1.0000
  H   H3        1.0  0.60936  0.34370  0.86823  1.0000
  H   H4        1.0  0.39064  0.65630  0.13177  1.0000
  H   H5        1.0  0.64398  0.40808  0.09207  1.0000
  H   H6        1.0  0.35602  0.59192  0.90793  1.0000
  H   H7        1.0  0.48735  0.24278  0.14652  1.0000
  H   H8        1.0  0.51265  0.75722  0.85348  1.0000
  H   H9        1.0  0.18170  0.90495  0.90163  1.0000
  H   H10       1.0  0.81830  0.09505  0.09837  1.0000
  H   H11       1.0  0.33315  0.10077  0.17621  1.0000
  H   H12       1.0  0.66684  0.89923  0.82379  1.0000
  H   H13       1.0  0.03063  0.75679  0.92874  1.0000
  H   H14       1.0  0.96936  0.24321  0.07126  1.0000
  H   H15       1.0  0.85687  0.60238  0.98154  1.0000
  H   H16       1.0  0.14313  0.39762  0.01846  1.0000
  H   H17       1.0  0.87409  0.67038  0.20122  1.0000
  H   H18       1.0  0.12591  0.32962  0.79878  1.0000
  H   H19       1.0  0.07480  0.89468  0.35883  1.0000
  H   H20       1.0  0.92520  0.10532  0.64117  1.0000
  H   H21       1.0  0.23503  0.03060  0.30267  1.0000
  H   H22       1.0  0.76497  0.96940  0.69733  1.0000
  C   C1        1.0  0.44193  0.14864  0.81237  1.0000
  C   C2        1.0  0.55807  0.85137  0.18763  1.0000
  C   C3        1.0  0.54450  0.27611  0.89875  1.0000
  C   C4        1.0  0.45550  0.72389  0.10125  1.0000
  C   C5        1.0  0.56146  0.31099  0.02083  1.0000
  C   C6        1.0  0.43854  0.68901  0.97917  1.0000
  C   C7        1.0  0.47297  0.21851  0.05141  1.0000
  C   C8        1.0  0.52702  0.78148  0.94859  1.0000
  C   C9        1.0  0.36479  0.09414  0.95965  1.0000
  C   C10       1.0  0.63521  0.90586  0.04035  1.0000
  C   C11       1.0  0.26047  0.99613  0.98349  1.0000
  C   C12       1.0  0.73953  0.00387  0.01651  1.0000
  C   C13       1.0  0.25406  0.01010  0.09432  1.0000
  C   C14       1.0  0.74594  0.98990  0.90568  1.0000
  C   C15       1.0  0.14679  0.91021  0.11377  1.0000
  C   C16       1.0  0.85320  0.08979  0.88623  1.0000
  C   C17       1.0  0.03817  0.78558  0.02306  1.0000
  C   C18       1.0  0.96183  0.21442  0.97694  1.0000
  C   C19       1.0  0.94098  0.69841  0.05349  1.0000
  C   C20       1.0  0.05902  0.30159  0.94651  1.0000
  C   C21       1.0  0.94921  0.73528  0.17438  1.0000
  C   C22       1.0  0.05079  0.26471  0.82562  1.0000
  C   C23       1.0  0.05856  0.85798  0.26239  1.0000
  C   C24       1.0  0.94144  0.14202  0.73762  1.0000
  N   N1        1.0  0.35262  0.05937  0.84053  1.0000
  N   N2        1.0  0.64738  0.94063  0.15947  1.0000
  N   N3        1.0  0.15252  0.94023  0.23068  1.0000
  N   N4        1.0  0.84748  0.05977  0.76932  1.0000
  O   O1        1.0  0.05594  0.51994  0.77562  1.0000
  O   O2        1.0  0.94407  0.48006  0.22438  1.0000
  O   O3        1.0  0.84310  0.67397  0.66545  1.0000
  O   O4        1.0  0.15690  0.32603  0.33455  1.0000
  O   O5        1.0  0.74950  0.42138  0.56938  1.0000
  O   O6        1.0  0.25050  0.57862  0.43062  1.0000
  O   O7        1.0  0.67228  0.56230  0.79428  1.0000
  O   O8        1.0  0.32772  0.43770  0.20572  1.0000
  O   O9        1.0  0.43668  0.41440  0.55026  1.0000
  O   O10       1.0  0.56332  0.58560  0.44974  1.0000
  O   O11       1.0  0.51491  0.70182  0.66483  1.0000
  O   O12       1.0  0.48509  0.29818  0.33517  1.0000
  O   O13       1.0  0.67052  0.12740  0.42683  1.0000
  O   O14       1.0  0.32948  0.87260  0.57317  1.0000
  O   O15       1.0  0.63158  0.23065  0.64889  1.0000
  O   O16       1.0  0.36842  0.76935  0.35111  1.0000
  O   O17       1.0  0.24495  0.26763  0.65144  1.0000
  O   O18       1.0  0.75505  0.73237  0.34856  1.0000
  O   O19       1.0  0.34160  0.15943  0.44203  1.0000
  O   O20       1.0  0.65840  0.84057  0.55797  1.0000
  O   O21       1.0  0.08694  0.42350  0.53849  1.0000
  O   O22       1.0  0.91307  0.57650  0.46151  1.0000
  O   O23       1.0  0.99323  0.86196  0.58216  1.0000
  O   O24       1.0  0.00677  0.13804  0.41783  1.0000
  O   O25       1.0  0.17768  0.70441  0.70012  1.0000
  O   O26       1.0  0.82232  0.29559  0.29988  1.0000
