data_image0
_chemical_formula_structural       Cd4H20C24N8Cl4O20
_chemical_formula_sum              "Cd4 H20 C24 N8 Cl4 O20"
_cell_length_a       7.23699
_cell_length_b       10.0834
_cell_length_c       12.3173
_cell_angle_alpha    89.999
_cell_angle_beta     84.7337
_cell_angle_gamma    89.9995

_space_group_name_H-M_alt    "P 1"
_space_group_IT_number       1

loop_
  _space_group_symop_operation_xyz
  'x, y, z'

loop_
  _atom_site_type_symbol
  _atom_site_label
  _atom_site_symmetry_multiplicity
  _atom_site_fract_x
  _atom_site_fract_y
  _atom_site_fract_z
  _atom_site_occupancy
  Cd  Cd1       1.0  0.85880  0.11412  0.59228  1.0000
  Cd  Cd2       1.0  0.64120  0.61412  0.90772  1.0000
  Cd  Cd3       1.0  0.14119  0.88588  0.40772  1.0000
  Cd  Cd4       1.0  0.35880  0.38588  0.09228  1.0000
  H   H1        1.0  0.19167  0.92142  0.93964  1.0000
  H   H2        1.0  0.30833  0.42143  0.56035  1.0000
  H   H3        1.0  0.80834  0.07857  0.06036  1.0000
  H   H4        1.0  0.69167  0.57857  0.43966  1.0000
  H   H5        1.0  0.12946  0.48920  0.88063  1.0000
  H   H6        1.0  0.37053  0.98921  0.61936  1.0000
  H   H7        1.0  0.87055  0.51078  0.11935  1.0000
  H   H8        1.0  0.62946  0.01080  0.38064  1.0000
  H   H9        1.0  0.96476  0.40247  0.72031  1.0000
  H   H10       1.0  0.53525  0.90247  0.77968  1.0000
  H   H11       1.0  0.03524  0.59752  0.27968  1.0000
  H   H12       1.0  0.46476  0.09754  0.22031  1.0000
  H   H13       1.0  0.51284  0.23453  0.68025  1.0000
  H   H14       1.0  0.98718  0.73453  0.81975  1.0000
  H   H15       1.0  0.48717  0.76548  0.31976  1.0000
  H   H16       1.0  0.01283  0.26547  0.18024  1.0000
  H   H17       1.0  0.62299  0.18977  0.77594  1.0000
  H   H18       1.0  0.87702  0.68978  0.72406  1.0000
  H   H19       1.0  0.37701  0.81023  0.22407  1.0000
  H   H20       1.0  0.12298  0.31021  0.27594  1.0000
  C   C1        1.0  0.02870  0.97679  0.80363  1.0000
  C   C2        1.0  0.47131  0.47680  0.69637  1.0000
  C   C3        1.0  0.97131  0.02320  0.19638  1.0000
  C   C4        1.0  0.52870  0.52321  0.30364  1.0000
  C   C5        1.0  0.07672  0.12024  0.83044  1.0000
  C   C6        1.0  0.42328  0.62025  0.66955  1.0000
  C   C7        1.0  0.92328  0.87974  0.16955  1.0000
  C   C8        1.0  0.57671  0.37976  0.33045  1.0000
  C   C9        1.0  0.17538  0.16822  0.91661  1.0000
  C   C10       1.0  0.32462  0.66823  0.58339  1.0000
  C   C11       1.0  0.82464  0.83179  0.08338  1.0000
  C   C12       1.0  0.67536  0.33178  0.41663  1.0000
  C   C13       1.0  0.27077  0.09072  0.00223  1.0000
  C   C14       1.0  0.22922  0.59073  0.49777  1.0000
  C   C15       1.0  0.72925  0.90927  0.99777  1.0000
  C   C16       1.0  0.77075  0.40927  0.50224  1.0000
  C   C17       1.0  0.11534  0.38350  0.86500  1.0000
  C   C18       1.0  0.38465  0.88350  0.63500  1.0000
  C   C19       1.0  0.88465  0.61648  0.13500  1.0000
  C   C20       1.0  0.61534  0.11650  0.36500  1.0000
  C   C21       1.0  0.02447  0.33630  0.77748  1.0000
  C   C22       1.0  0.47554  0.83631  0.72251  1.0000
  C   C23       1.0  0.97555  0.66368  0.22250  1.0000
  C   C24       1.0  0.52446  0.16371  0.27749  1.0000
  N   N1        1.0  0.00579  0.20693  0.76184  1.0000
  N   N2        1.0  0.49422  0.70692  0.73816  1.0000
  N   N3        1.0  0.99422  0.79306  0.23816  1.0000
  N   N4        1.0  0.50578  0.29308  0.26184  1.0000
  N   N5        1.0  0.19042  0.30029  0.93183  1.0000
  N   N6        1.0  0.30957  0.80030  0.56818  1.0000
  N   N7        1.0  0.80958  0.69971  0.06817  1.0000
  N   N8        1.0  0.69041  0.19971  0.43184  1.0000
  Cl  Cl1       1.0  0.19471  0.11967  0.49656  1.0000
  Cl  Cl2       1.0  0.30528  0.61967  0.00344  1.0000
  Cl  Cl3       1.0  0.80527  0.88033  0.50344  1.0000
  Cl  Cl4       1.0  0.69471  0.38033  0.99656  1.0000
  O   O1        1.0  0.92729  0.95647  0.72868  1.0000
  O   O2        1.0  0.57271  0.45647  0.77132  1.0000
  O   O3        1.0  0.07271  0.04351  0.27132  1.0000
  O   O4        1.0  0.42730  0.54354  0.22869  1.0000
  O   O5        1.0  0.09105  0.88098  0.85927  1.0000
  O   O6        1.0  0.40895  0.38098  0.64073  1.0000
  O   O7        1.0  0.90897  0.11901  0.14072  1.0000
  O   O8        1.0  0.59105  0.61903  0.35928  1.0000
  O   O9        1.0  0.26504  0.96191  0.00473  1.0000
  O   O10       1.0  0.23496  0.46192  0.49528  1.0000
  O   O11       1.0  0.73495  0.03808  0.99527  1.0000
  O   O12       1.0  0.76503  0.53809  0.50473  1.0000
  O   O13       1.0  0.35137  0.15266  0.07083  1.0000
  O   O14       1.0  0.14862  0.65267  0.42916  1.0000
  O   O15       1.0  0.64862  0.84733  0.92917  1.0000
  O   O16       1.0  0.85136  0.34734  0.57084  1.0000
  O   O17       1.0  0.57910  0.15647  0.70834  1.0000
  O   O18       1.0  0.92090  0.65648  0.79165  1.0000
  O   O19       1.0  0.42088  0.84353  0.29166  1.0000
  O   O20       1.0  0.07911  0.34352  0.20834  1.0000
