data_image0
_chemical_formula_structural       Sn4H44C20O8
_chemical_formula_sum              "Sn4 H44 C20 O8"
_cell_length_a       7.93408
_cell_length_b       7.93409
_cell_length_c       12.9377
_cell_angle_alpha    74.3967
_cell_angle_beta     74.396
_cell_angle_gamma    73.7323

_space_group_name_H-M_alt    "P 1"
_space_group_IT_number       1

loop_
  _space_group_symop_operation_xyz
  'x, y, z'

loop_
  _atom_site_type_symbol
  _atom_site_label
  _atom_site_symmetry_multiplicity
  _atom_site_fract_x
  _atom_site_fract_y
  _atom_site_fract_z
  _atom_site_occupancy
  Sn  Sn1       1.0  0.79426  0.57141  0.79081  1.0000
  Sn  Sn2       1.0  0.57145  0.79423  0.29079  1.0000
  Sn  Sn3       1.0  0.20576  0.42857  0.20920  1.0000
  Sn  Sn4       1.0  0.42857  0.20577  0.70920  1.0000
  H   H1        1.0  0.19222  0.02422  0.98447  1.0000
  H   H2        1.0  0.02421  0.19223  0.48445  1.0000
  H   H3        1.0  0.80776  0.97579  0.01555  1.0000
  H   H4        1.0  0.97579  0.80776  0.51554  1.0000
  H   H5        1.0  0.12242  0.93928  0.89573  1.0000
  H   H6        1.0  0.93926  0.12242  0.39574  1.0000
  H   H7        1.0  0.87758  0.06071  0.10427  1.0000
  H   H8        1.0  0.06074  0.87758  0.60425  1.0000
  H   H9        1.0  0.47353  0.66067  0.93263  1.0000
  H   H10       1.0  0.66066  0.47354  0.43263  1.0000
  H   H11       1.0  0.52646  0.33934  0.06737  1.0000
  H   H12       1.0  0.33934  0.52646  0.56737  1.0000
  H   H13       1.0  0.47658  0.47138  0.88236  1.0000
  H   H14       1.0  0.47138  0.47657  0.38237  1.0000
  H   H15       1.0  0.52343  0.52862  0.11763  1.0000
  H   H16       1.0  0.52862  0.52343  0.61764  1.0000
  H   H17       1.0  0.43972  0.69136  0.79717  1.0000
  H   H18       1.0  0.69136  0.43971  0.29717  1.0000
  H   H19       1.0  0.56029  0.30864  0.20282  1.0000
  H   H20       1.0  0.30864  0.56028  0.70283  1.0000
  H   H21       1.0  0.03627  0.46344  0.61461  1.0000
  H   H22       1.0  0.46344  0.03624  0.11460  1.0000
  H   H23       1.0  0.96374  0.53657  0.38539  1.0000
  H   H24       1.0  0.53655  0.96375  0.88540  1.0000
  H   H25       1.0  0.82116  0.55941  0.57969  1.0000
  H   H26       1.0  0.55940  0.82114  0.07968  1.0000
  H   H27       1.0  0.17884  0.44060  0.42031  1.0000
  H   H28       1.0  0.44059  0.17886  0.92032  1.0000
  H   H29       1.0  0.86711  0.33531  0.65761  1.0000
  H   H30       1.0  0.33532  0.86708  0.15761  1.0000
  H   H31       1.0  0.13290  0.66469  0.34239  1.0000
  H   H32       1.0  0.66467  0.13291  0.84239  1.0000
  H   H33       1.0  0.08256  0.66741  0.81644  1.0000
  H   H34       1.0  0.66739  0.08256  0.31644  1.0000
  H   H35       1.0  0.91745  0.33260  0.18355  1.0000
  H   H36       1.0  0.33260  0.91745  0.68355  1.0000
  H   H37       1.0  0.93141  0.62832  0.94537  1.0000
  H   H38       1.0  0.62830  0.93141  0.44536  1.0000
  H   H39       1.0  0.06859  0.37169  0.05463  1.0000
  H   H40       1.0  0.37170  0.06860  0.55463  1.0000
  H   H41       1.0  0.88184  0.83481  0.84844  1.0000
  H   H42       1.0  0.83480  0.88183  0.34844  1.0000
  H   H43       1.0  0.11817  0.16520  0.15156  1.0000
  H   H44       1.0  0.16520  0.11818  0.65156  1.0000
  C   C1        1.0  0.01991  0.21894  0.88731  1.0000
  C   C2        1.0  0.21895  0.01992  0.38728  1.0000
  C   C3        1.0  0.98008  0.78106  0.11270  1.0000
  C   C4        1.0  0.78104  0.98008  0.61272  1.0000
  C   C5        1.0  0.07407  0.03084  0.95349  1.0000
  C   C6        1.0  0.03082  0.07409  0.45348  1.0000
  C   C7        1.0  0.92591  0.96917  0.04652  1.0000
  C   C8        1.0  0.96918  0.92591  0.54651  1.0000
  C   C9        1.0  0.51196  0.60226  0.85969  1.0000
  C   C10       1.0  0.60226  0.51193  0.35970  1.0000
  C   C11       1.0  0.48805  0.39775  0.14030  1.0000
  C   C12       1.0  0.39774  0.48807  0.64030  1.0000
  C   C13       1.0  0.89217  0.46965  0.64271  1.0000
  C   C14       1.0  0.46966  0.89214  0.14271  1.0000
  C   C15       1.0  0.10784  0.53035  0.35729  1.0000
  C   C16       1.0  0.53034  0.10786  0.85729  1.0000
  C   C17       1.0  0.94109  0.69072  0.85809  1.0000
  C   C18       1.0  0.69071  0.94109  0.35808  1.0000
  C   C19       1.0  0.05892  0.30929  0.14191  1.0000
  C   C20       1.0  0.30929  0.05891  0.64191  1.0000
  O   O1        1.0  0.85307  0.29905  0.90333  1.0000
  O   O2        1.0  0.29903  0.85309  0.40331  1.0000
  O   O3        1.0  0.14693  0.70095  0.09668  1.0000
  O   O4        1.0  0.70097  0.14690  0.59669  1.0000
  O   O5        1.0  0.13839  0.29309  0.81777  1.0000
  O   O6        1.0  0.29307  0.13838  0.31777  1.0000
  O   O7        1.0  0.86161  0.70690  0.18224  1.0000
  O   O8        1.0  0.70694  0.86160  0.68223  1.0000
