data_image0
_chemical_formula_structural       Co4H28C12Cl8O6
_chemical_formula_sum              "Co4 H28 C12 Cl8 O6"
_cell_length_a       7.57945
_cell_length_b       7.57965
_cell_length_c       12.3167
_cell_angle_alpha    103.294
_cell_angle_beta     103.317
_cell_angle_gamma    97.6475

_space_group_name_H-M_alt    "P 1"
_space_group_IT_number       1

loop_
  _space_group_symop_operation_xyz
  'x, y, z'

loop_
  _atom_site_type_symbol
  _atom_site_label
  _atom_site_symmetry_multiplicity
  _atom_site_fract_x
  _atom_site_fract_y
  _atom_site_fract_z
  _atom_site_occupancy
  Co  Co1       1.0  0.96539  0.96535  0.61196  1.0000
  Co  Co2       1.0  0.03478  0.03467  0.38812  1.0000
  Co  Co3       1.0  0.37345  0.37346  0.86553  1.0000
  Co  Co4       1.0  0.62674  0.62658  0.13452  1.0000
  H   H1        1.0  0.00713  0.72191  0.87011  1.0000
  H   H2        1.0  0.27714  0.99194  0.12942  1.0000
  H   H3        1.0  0.99264  0.27768  0.12995  1.0000
  H   H4        1.0  0.72200  0.00727  0.87021  1.0000
  H   H5        1.0  0.10143  0.60464  0.97509  1.0000
  H   H6        1.0  0.39462  0.89788  0.02454  1.0000
  H   H7        1.0  0.89821  0.39458  0.02480  1.0000
  H   H8        1.0  0.60478  0.10151  0.97518  1.0000
  H   H9        1.0  0.93197  0.47677  0.84280  1.0000
  H   H10       1.0  0.52218  0.06783  0.15670  1.0000
  H   H11       1.0  0.06794  0.52273  0.15693  1.0000
  H   H12       1.0  0.47681  0.93216  0.84286  1.0000
  H   H13       1.0  0.13247  0.70959  0.71048  1.0000
  H   H14       1.0  0.29043  0.86742  0.28942  1.0000
  H   H15       1.0  0.86776  0.29066  0.28974  1.0000
  H   H16       1.0  0.70979  0.13282  0.71063  1.0000
  H   H17       1.0  0.03762  0.46692  0.66173  1.0000
  H   H18       1.0  0.53309  0.96239  0.33807  1.0000
  H   H19       1.0  0.96258  0.53334  0.33825  1.0000
  H   H20       1.0  0.46712  0.03790  0.66185  1.0000
  H   H21       1.0  0.29631  0.52757  0.57694  1.0000
  H   H22       1.0  0.47271  0.70384  0.42309  1.0000
  H   H23       1.0  0.70404  0.47285  0.42323  1.0000
  H   H24       1.0  0.52759  0.29656  0.57702  1.0000
  H   H25       1.0  0.44881  0.65079  0.71696  1.0000
  H   H26       1.0  0.34949  0.55120  0.28311  1.0000
  H   H27       1.0  0.55141  0.34947  0.28327  1.0000
  H   H28       1.0  0.65074  0.44910  0.71703  1.0000
  C   C1        1.0  0.04978  0.59342  0.88277  1.0000
  C   C2        1.0  0.40583  0.94968  0.11684  1.0000
  C   C3        1.0  0.95004  0.40613  0.11715  1.0000
  C   C4        1.0  0.59352  0.04992  0.88287  1.0000
  C   C5        1.0  0.16100  0.57210  0.71375  1.0000
  C   C6        1.0  0.42794  0.83897  0.28614  1.0000
  C   C7        1.0  0.83917  0.42809  0.28636  1.0000
  C   C8        1.0  0.57225  0.16128  0.71387  1.0000
  C   C9        1.0  0.32736  0.54000  0.67041  1.0000
  C   C10       1.0  0.46022  0.67271  0.32962  1.0000
  C   C11       1.0  0.67290  0.46030  0.32976  1.0000
  C   C12       1.0  0.54003  0.32760  0.67049  1.0000
  Cl  Cl1       1.0  0.74862  0.74879  0.61936  1.0000
  Cl  Cl2       1.0  0.25151  0.25133  0.38077  1.0000
  Cl  Cl3       1.0  0.85102  0.14899  0.49998  1.0000
  Cl  Cl4       1.0  0.14916  0.85104  0.50011  1.0000
  Cl  Cl5       1.0  0.63022  0.63023  0.94533  1.0000
  Cl  Cl6       1.0  0.36991  0.36988  0.05472  1.0000
  Cl  Cl7       1.0  0.11067  0.11061  0.79831  1.0000
  Cl  Cl8       1.0  0.88945  0.88943  0.20176  1.0000
  O   O1        1.0  0.20083  0.56321  0.83274  1.0000
  O   O2        1.0  0.43667  0.79898  0.16713  1.0000
  O   O3        1.0  0.79917  0.43669  0.16729  1.0000
  O   O4        1.0  0.56334  0.20103  0.83285  1.0000
  O   O5        1.0  0.36781  0.36787  0.69102  1.0000
  O   O6        1.0  0.63241  0.63236  0.30906  1.0000
