data_image0
_chemical_formula_structural       Sc4H20C32O20
_chemical_formula_sum              "Sc4 H20 C32 O20"
_cell_length_a       7.42773
_cell_length_b       5.83137
_cell_length_c       20.0505
_cell_angle_alpha    90.0026
_cell_angle_beta     89.9911
_cell_angle_gamma    90.0443

_space_group_name_H-M_alt    "P 1"
_space_group_IT_number       1

loop_
  _space_group_symop_operation_xyz
  'x, y, z'

loop_
  _atom_site_type_symbol
  _atom_site_label
  _atom_site_symmetry_multiplicity
  _atom_site_fract_x
  _atom_site_fract_y
  _atom_site_fract_z
  _atom_site_occupancy
  Sc  Sc1       1.0  0.64478  0.50064  0.49994  1.0000
  Sc  Sc2       1.0  0.14477  0.49940  0.50006  1.0000
  Sc  Sc3       1.0  0.64477  0.99938  0.99993  1.0000
  Sc  Sc4       1.0  0.14479  0.00063  0.00006  1.0000
  H   H1        1.0  0.10636  0.26545  0.69143  1.0000
  H   H2        1.0  0.60662  0.73494  0.30871  1.0000
  H   H3        1.0  0.10657  0.23496  0.19135  1.0000
  H   H4        1.0  0.60648  0.76519  0.80864  1.0000
  H   H5        1.0  0.10621  0.26003  0.81673  1.0000
  H   H6        1.0  0.60610  0.74037  0.18340  1.0000
  H   H7        1.0  0.10616  0.24040  0.31666  1.0000
  H   H8        1.0  0.60621  0.75978  0.68333  1.0000
  H   H9        1.0  0.68391  0.26642  0.81669  1.0000
  H   H10       1.0  0.18380  0.73318  0.18317  1.0000
  H   H11       1.0  0.68384  0.23315  0.31678  1.0000
  H   H12       1.0  0.18391  0.76663  0.68324  1.0000
  H   H13       1.0  0.68376  0.27140  0.69136  1.0000
  H   H14       1.0  0.18400  0.72819  0.30849  1.0000
  H   H15       1.0  0.68395  0.22818  0.19145  1.0000
  H   H16       1.0  0.18388  0.77162  0.80856  1.0000
  H   H17       1.0  0.39436  0.83463  0.49621  1.0000
  H   H18       1.0  0.89383  0.16539  0.50379  1.0000
  H   H19       1.0  0.39382  0.66537  0.99621  1.0000
  H   H20       1.0  0.89436  0.33461  0.00378  1.0000
  C   C1        1.0  0.39495  0.28769  0.60996  1.0000
  C   C2        1.0  0.89532  0.71232  0.39004  1.0000
  C   C3        1.0  0.39523  0.21231  0.10996  1.0000
  C   C4        1.0  0.89511  0.78767  0.89004  1.0000
  C   C5        1.0  0.39507  0.26830  0.68428  1.0000
  C   C6        1.0  0.89532  0.73173  0.31573  1.0000
  C   C7        1.0  0.39527  0.23172  0.18428  1.0000
  C   C8        1.0  0.89520  0.76826  0.81572  1.0000
  C   C9        1.0  0.23186  0.26533  0.71941  1.0000
  C   C10       1.0  0.73204  0.73490  0.28067  1.0000
  C   C11       1.0  0.23202  0.23494  0.21936  1.0000
  C   C12       1.0  0.73196  0.76517  0.78064  1.0000
  C   C13       1.0  0.23179  0.26339  0.78872  1.0000
  C   C14       1.0  0.73177  0.73687  0.21136  1.0000
  C   C15       1.0  0.23179  0.23686  0.28867  1.0000
  C   C16       1.0  0.73180  0.76324  0.71132  1.0000
  C   C17       1.0  0.39509  0.26423  0.82383  1.0000
  C   C18       1.0  0.89496  0.73577  0.17618  1.0000
  C   C19       1.0  0.39501  0.23578  0.32382  1.0000
  C   C20       1.0  0.89507  0.76421  0.67618  1.0000
  C   C21       1.0  0.55833  0.26659  0.78869  1.0000
  C   C22       1.0  0.05830  0.73312  0.21124  1.0000
  C   C23       1.0  0.55833  0.23310  0.28873  1.0000
  C   C24       1.0  0.05836  0.76672  0.71128  1.0000
  C   C25       1.0  0.55830  0.26837  0.71937  1.0000
  C   C26       1.0  0.05845  0.73139  0.28055  1.0000
  C   C27       1.0  0.55843  0.23137  0.21941  1.0000
  C   C28       1.0  0.05839  0.76848  0.78059  1.0000
  C   C29       1.0  0.39518  0.24595  0.89806  1.0000
  C   C30       1.0  0.89486  0.75410  0.10194  1.0000
  C   C31       1.0  0.39498  0.25408  0.39806  1.0000
  C   C32       1.0  0.89511  0.74594  0.60194  1.0000
  O   O1        1.0  0.54652  0.29974  0.58032  1.0000
  O   O2        1.0  0.04691  0.70012  0.41962  1.0000
  O   O3        1.0  0.54678  0.20024  0.08033  1.0000
  O   O4        1.0  0.04669  0.79981  0.91964  1.0000
  O   O5        1.0  0.24327  0.29879  0.58036  1.0000
  O   O6        1.0  0.74368  0.70138  0.41970  1.0000
  O   O7        1.0  0.24355  0.20129  0.08034  1.0000
  O   O8        1.0  0.74344  0.79864  0.91968  1.0000
  O   O9        1.0  0.24376  0.23495  0.92797  1.0000
  O   O10       1.0  0.74338  0.76533  0.07212  1.0000
  O   O11       1.0  0.24352  0.26521  0.42793  1.0000
  O   O12       1.0  0.74366  0.73485  0.57208  1.0000
  O   O13       1.0  0.54657  0.23437  0.92793  1.0000
  O   O14       1.0  0.04621  0.76543  0.07201  1.0000
  O   O15       1.0  0.54634  0.26550  0.42797  1.0000
  O   O16       1.0  0.04647  0.73450  0.57203  1.0000
  O   O17       1.0  0.39468  0.66765  0.49691  1.0000
  O   O18       1.0  0.89450  0.33236  0.50310  1.0000
  O   O19       1.0  0.39451  0.83234  0.99690  1.0000
  O   O20       1.0  0.89467  0.16764  0.00308  1.0000
