data_image0
_chemical_formula_structural       H30Pb2C40S4N10
_chemical_formula_sum              "H30 Pb2 C40 S4 N10"
_cell_length_a       9.95575
_cell_length_b       9.63322
_cell_length_c       11.32
_cell_angle_alpha    105.904
_cell_angle_beta     105.356
_cell_angle_gamma    91.8876

_space_group_name_H-M_alt    "P 1"
_space_group_IT_number       1

loop_
  _space_group_symop_operation_xyz
  'x, y, z'

loop_
  _atom_site_type_symbol
  _atom_site_label
  _atom_site_symmetry_multiplicity
  _atom_site_fract_x
  _atom_site_fract_y
  _atom_site_fract_z
  _atom_site_occupancy
  H   H1        1.0  0.03045  0.17442  0.13455  1.0000
  H   H2        1.0  0.96956  0.82559  0.86550  1.0000
  H   H3        1.0  0.19203  0.98347  0.09571  1.0000
  H   H4        1.0  0.80798  0.01655  0.90431  1.0000
  H   H5        1.0  0.53764  0.31145  0.32955  1.0000
  H   H6        1.0  0.46238  0.68857  0.67046  1.0000
  H   H7        1.0  0.36224  0.48653  0.35815  1.0000
  H   H8        1.0  0.63777  0.51350  0.64189  1.0000
  H   H9        1.0  0.42066  0.91126  0.13309  1.0000
  H   H10       1.0  0.57933  0.08878  0.86689  1.0000
  H   H11       1.0  0.66210  0.15977  0.22791  1.0000
  H   H12       1.0  0.33791  0.84026  0.77211  1.0000
  H   H13       1.0  0.53184  0.76211  0.03493  1.0000
  H   H14       1.0  0.46816  0.23791  0.96507  1.0000
  H   H15       1.0  0.69667  0.58039  0.99209  1.0000
  H   H16       1.0  0.30333  0.41963  0.00792  1.0000
  H   H17       1.0  0.04311  0.87980  0.20178  1.0000
  H   H18       1.0  0.95688  0.12021  0.79826  1.0000
  H   H19       1.0  0.89282  0.07818  0.25266  1.0000
  H   H20       1.0  0.10718  0.92184  0.74736  1.0000
  H   H21       1.0  0.66325  0.52191  0.25194  1.0000
  H   H22       1.0  0.33683  0.47805  0.74812  1.0000
  H   H23       1.0  0.46860  0.66333  0.30109  1.0000
  H   H24       1.0  0.53143  0.33657  0.69887  1.0000
  H   H25       1.0  0.78467  0.01195  0.55643  1.0000
  H   H26       1.0  0.21528  0.98806  0.44348  1.0000
  H   H27       1.0  0.96385  0.85862  0.49389  1.0000
  H   H28       1.0  0.03615  0.14140  0.50611  1.0000
  H   H29       1.0  0.38967  0.88061  0.39733  1.0000
  H   H30       1.0  0.61030  0.11932  0.60254  1.0000
  Pb  Pb1       1.0  0.01008  0.53301  0.24431  1.0000
  Pb  Pb2       1.0  0.98993  0.46698  0.75570  1.0000
  C   C1        1.0  0.14387  0.19950  0.17636  1.0000
  C   C2        1.0  0.85613  0.80051  0.82367  1.0000
  C   C3        1.0  0.23358  0.09398  0.15545  1.0000
  C   C4        1.0  0.76642  0.90603  0.84457  1.0000
  C   C5        1.0  0.37942  0.13191  0.20596  1.0000
  C   C6        1.0  0.62057  0.86811  0.79404  1.0000
  C   C7        1.0  0.42655  0.27617  0.28223  1.0000
  C   C8        1.0  0.57344  0.72384  0.71779  1.0000
  C   C9        1.0  0.32933  0.37407  0.29944  1.0000
  C   C10       1.0  0.67067  0.62593  0.70059  1.0000
  C   C11       1.0  0.47192  0.02257  0.17490  1.0000
  C   C12       1.0  0.52808  0.97745  0.82509  1.0000
  C   C13       1.0  0.60991  0.04880  0.18786  1.0000
  C   C14       1.0  0.39009  0.95123  0.81215  1.0000
  C   C15       1.0  0.69841  0.93658  0.15209  1.0000
  C   C16       1.0  0.30159  0.06344  0.84791  1.0000
  C   C17       1.0  0.64447  0.79389  0.07542  1.0000
  C   C18       1.0  0.35553  0.20614  0.92459  1.0000
  C   C19       1.0  0.73641  0.69195  0.05038  1.0000
  C   C20       1.0  0.26359  0.30806  0.94964  1.0000
  C   C21       1.0  0.92882  0.85858  0.16616  1.0000
  C   C22       1.0  0.07117  0.14142  0.83387  1.0000
  C   C23       1.0  0.84527  0.96857  0.19504  1.0000
  C   C24       1.0  0.15472  0.03144  0.80497  1.0000
  C   C25       1.0  0.68588  0.63101  0.31991  1.0000
  C   C26       1.0  0.31416  0.36896  0.68009  1.0000
  C   C27       1.0  0.57762  0.70910  0.34827  1.0000
  C   C28       1.0  0.42240  0.29084  0.65170  1.0000
  C   C29       1.0  0.60863  0.85038  0.43426  1.0000
  C   C30       1.0  0.39135  0.14958  0.56566  1.0000
  C   C31       1.0  0.75167  0.90322  0.48981  1.0000
  C   C32       1.0  0.24829  0.09676  0.51013  1.0000
  C   C33       1.0  0.85256  0.81803  0.45443  1.0000
  C   C34       1.0  0.14743  0.18197  0.54556  1.0000
  C   C35       1.0  0.49357  0.93365  0.45728  1.0000
  C   C36       1.0  0.50639  0.06630  0.54258  1.0000
  C   C37       1.0  0.22707  0.68080  0.08909  1.0000
  C   C38       1.0  0.77292  0.31919  0.91093  1.0000
  C   C39       1.0  0.86378  0.33628  0.41868  1.0000
  C   C40       1.0  0.13620  0.66372  0.58131  1.0000
  S   S1        1.0  0.78181  0.29973  0.51551  1.0000
  S   S2        1.0  0.21819  0.70027  0.48449  1.0000
  S   S3        1.0  0.22758  0.70174  0.95074  1.0000
  S   S4        1.0  0.77242  0.29827  0.04928  1.0000
  N   N1        1.0  0.19038  0.33804  0.24595  1.0000
  N   N2        1.0  0.80962  0.66197  0.75409  1.0000
  N   N3        1.0  0.82197  0.68416  0.36999  1.0000
  N   N4        1.0  0.17807  0.31582  0.63002  1.0000
  N   N5        1.0  0.92292  0.35705  0.34607  1.0000
  N   N6        1.0  0.07706  0.64294  0.65392  1.0000
  N   N7        1.0  0.22827  0.66768  0.19072  1.0000
  N   N8        1.0  0.77172  0.33233  0.80928  1.0000
  N   N9        1.0  0.87688  0.72115  0.09606  1.0000
  N   N10       1.0  0.12312  0.27886  0.90397  1.0000
