data_image0
_chemical_formula_structural       Zn6H28C24O32
_chemical_formula_sum              "Zn6 H28 C24 O32"
_cell_length_a       6.05275
_cell_length_b       9.44261
_cell_length_c       15.2389
_cell_angle_alpha    90.0001
_cell_angle_beta     90.0006
_cell_angle_gamma    103.153

_space_group_name_H-M_alt    "P 1"
_space_group_IT_number       1

loop_
  _space_group_symop_operation_xyz
  'x, y, z'

loop_
  _atom_site_type_symbol
  _atom_site_label
  _atom_site_symmetry_multiplicity
  _atom_site_fract_x
  _atom_site_fract_y
  _atom_site_fract_z
  _atom_site_occupancy
  Zn  Zn1       1.0  0.50001  0.00000  1.00000  1.0000
  Zn  Zn2       1.0  0.50000  0.50000  0.50000  1.0000
  Zn  Zn3       1.0  0.90380  0.65400  0.90968  1.0000
  Zn  Zn4       1.0  0.09620  0.84600  0.40968  1.0000
  Zn  Zn5       1.0  0.09621  0.34601  0.09032  1.0000
  Zn  Zn6       1.0  0.90380  0.15399  0.59032  1.0000
  H   H1        1.0  0.33361  0.66477  0.93399  1.0000
  H   H2        1.0  0.66639  0.83524  0.43399  1.0000
  H   H3        1.0  0.66639  0.33523  0.06601  1.0000
  H   H4        1.0  0.33361  0.16477  0.56601  1.0000
  H   H5        1.0  0.20808  0.49779  0.92145  1.0000
  H   H6        1.0  0.79193  0.00220  0.42144  1.0000
  H   H7        1.0  0.79191  0.50220  0.07855  1.0000
  H   H8        1.0  0.20809  0.99780  0.57855  1.0000
  H   H9        1.0  0.60250  0.07461  0.82095  1.0000
  H   H10       1.0  0.39750  0.42539  0.32095  1.0000
  H   H11       1.0  0.39750  0.92538  0.17905  1.0000
  H   H12       1.0  0.60250  0.57462  0.67905  1.0000
  H   H13       1.0  0.50607  0.26489  0.73873  1.0000
  H   H14       1.0  0.49391  0.23510  0.23873  1.0000
  H   H15       1.0  0.49393  0.73512  0.26127  1.0000
  H   H16       1.0  0.50609  0.76489  0.76127  1.0000
  H   H17       1.0  0.28934  0.34408  0.77821  1.0000
  H   H18       1.0  0.71064  0.15592  0.27820  1.0000
  H   H19       1.0  0.71066  0.65593  0.22180  1.0000
  H   H20       1.0  0.28935  0.84407  0.72180  1.0000
  H   H21       1.0  0.01857  0.12973  0.83417  1.0000
  H   H22       1.0  0.98142  0.37028  0.33417  1.0000
  H   H23       1.0  0.98144  0.87029  0.16583  1.0000
  H   H24       1.0  0.01857  0.62971  0.66583  1.0000
  H   H25       1.0  0.18926  0.05998  0.76082  1.0000
  H   H26       1.0  0.81072  0.44002  0.26081  1.0000
  H   H27       1.0  0.81074  0.94003  0.23919  1.0000
  H   H28       1.0  0.18928  0.55997  0.73919  1.0000
  C   C1        1.0  0.61824  0.44293  0.82513  1.0000
  C   C2        1.0  0.38175  0.05707  0.32513  1.0000
  C   C3        1.0  0.38176  0.55707  0.17487  1.0000
  C   C4        1.0  0.61824  0.94293  0.67486  1.0000
  C   C5        1.0  0.44343  0.30919  0.79813  1.0000
  C   C6        1.0  0.55657  0.19080  0.29813  1.0000
  C   C7        1.0  0.55658  0.69081  0.20187  1.0000
  C   C8        1.0  0.44342  0.80919  0.70187  1.0000
  C   C9        1.0  0.37876  0.18676  0.86601  1.0000
  C   C10       1.0  0.62124  0.31323  0.36601  1.0000
  C   C11       1.0  0.62124  0.81324  0.13399  1.0000
  C   C12       1.0  0.37876  0.68676  0.63399  1.0000
  C   C13       1.0  0.16542  0.07942  0.83095  1.0000
  C   C14       1.0  0.83457  0.42058  0.33095  1.0000
  C   C15       1.0  0.83458  0.92059  0.16905  1.0000
  C   C16       1.0  0.16543  0.57941  0.66905  1.0000
  C   C17       1.0  0.10092  0.93442  0.87737  1.0000
  C   C18       1.0  0.89907  0.56558  0.37737  1.0000
  C   C19       1.0  0.89909  0.06559  0.12263  1.0000
  C   C20       1.0  0.10092  0.43441  0.62263  1.0000
  C   C21       1.0  0.32623  0.24455  0.95627  1.0000
  C   C22       1.0  0.67377  0.25545  0.45627  1.0000
  C   C23       1.0  0.67378  0.75545  0.04373  1.0000
  C   C24       1.0  0.32622  0.74455  0.54372  1.0000
  O   O1        1.0  0.21049  0.59858  0.90155  1.0000
  O   O2        1.0  0.78951  0.90142  0.40154  1.0000
  O   O3        1.0  0.78951  0.40142  0.09845  1.0000
  O   O4        1.0  0.21050  0.09858  0.59845  1.0000
  O   O5        1.0  0.69417  0.45386  0.90398  1.0000
  O   O6        1.0  0.30582  0.04614  0.40398  1.0000
  O   O7        1.0  0.30584  0.54615  0.09602  1.0000
  O   O8        1.0  0.69416  0.95386  0.59602  1.0000
  O   O9        1.0  0.68397  0.54466  0.77044  1.0000
  O   O10       1.0  0.31604  0.95532  0.27044  1.0000
  O   O11       1.0  0.31604  0.45535  0.22956  1.0000
  O   O12       1.0  0.68394  0.04467  0.72956  1.0000
  O   O13       1.0  0.56119  0.11519  0.87953  1.0000
  O   O14       1.0  0.43880  0.38480  0.37953  1.0000
  O   O15       1.0  0.43881  0.88481  0.12046  1.0000
  O   O16       1.0  0.56120  0.61519  0.62046  1.0000
  O   O17       1.0  0.17759  0.91303  0.95266  1.0000
  O   O18       1.0  0.82240  0.58697  0.45266  1.0000
  O   O19       1.0  0.82242  0.08699  0.04734  1.0000
  O   O20       1.0  0.17759  0.41302  0.54734  1.0000
  O   O21       1.0  0.96186  0.83295  0.83678  1.0000
  O   O22       1.0  0.03813  0.66705  0.33678  1.0000
  O   O23       1.0  0.03814  0.16706  0.16323  1.0000
  O   O24       1.0  0.96187  0.33295  0.66322  1.0000
  O   O25       1.0  0.18511  0.32643  0.95954  1.0000
  O   O26       1.0  0.81489  0.17357  0.45954  1.0000
  O   O27       1.0  0.81490  0.67358  0.04046  1.0000
  O   O28       1.0  0.18510  0.82642  0.54046  1.0000
  O   O29       1.0  0.41203  0.20259  0.02501  1.0000
  O   O30       1.0  0.58798  0.29742  0.52501  1.0000
  O   O31       1.0  0.58798  0.79742  0.97499  1.0000
  O   O32       1.0  0.41201  0.70258  0.47499  1.0000
