data_image0
_chemical_formula_structural       Zn3H14C12O16
_chemical_formula_sum              "Zn3 H14 C12 O16"
_cell_length_a       6.68347
_cell_length_b       6.96196
_cell_length_c       9.72268
_cell_angle_alpha    85.2198
_cell_angle_beta     77.3
_cell_angle_gamma    80.7075

_space_group_name_H-M_alt    "P 1"
_space_group_IT_number       1

loop_
  _space_group_symop_operation_xyz
  'x, y, z'

loop_
  _atom_site_type_symbol
  _atom_site_label
  _atom_site_symmetry_multiplicity
  _atom_site_fract_x
  _atom_site_fract_y
  _atom_site_fract_z
  _atom_site_occupancy
  Zn  Zn1       1.0  0.00000  1.00000  1.00000  1.0000
  Zn  Zn2       1.0  0.55505  0.22644  0.66944  1.0000
  Zn  Zn3       1.0  0.44496  0.77356  0.33056  1.0000
  H   H1        1.0  0.10440  0.40829  0.37077  1.0000
  H   H2        1.0  0.89560  0.59171  0.62923  1.0000
  H   H3        1.0  0.93337  0.54405  0.27479  1.0000
  H   H4        1.0  0.06662  0.45596  0.72521  1.0000
  H   H5        1.0  0.18238  0.51952  0.05638  1.0000
  H   H6        1.0  0.81762  0.48049  0.94362  1.0000
  H   H7        1.0  0.37925  0.37025  0.12298  1.0000
  H   H8        1.0  0.62075  0.62975  0.87702  1.0000
  H   H9        1.0  0.29004  0.04418  0.60868  1.0000
  H   H10       1.0  0.70996  0.95582  0.39133  1.0000
  H   H11       1.0  0.34933  0.18576  0.47761  1.0000
  H   H12       1.0  0.65067  0.81424  0.52240  1.0000
  H   H13       1.0  0.79633  0.22646  0.19383  1.0000
  H   H14       1.0  0.20367  0.77353  0.80617  1.0000
  C   C1        1.0  0.80474  0.31629  0.40805  1.0000
  C   C2        1.0  0.19526  0.68371  0.59195  1.0000
  C   C3        1.0  0.98748  0.39418  0.31052  1.0000
  C   C4        1.0  0.01251  0.60582  0.68948  1.0000
  C   C5        1.0  0.07901  0.26975  0.18204  1.0000
  C   C6        1.0  0.92099  0.73025  0.81796  1.0000
  C   C7        1.0  0.24410  0.36621  0.07654  1.0000
  C   C8        1.0  0.75590  0.63379  0.92346  1.0000
  C   C9        1.0  0.32179  0.27581  0.93425  1.0000
  C   C10       1.0  0.67820  0.72419  0.06576  1.0000
  C   C11       1.0  0.17396  0.06216  0.22794  1.0000
  C   C12       1.0  0.82605  0.93784  0.77206  1.0000
  O   O1        1.0  0.70915  0.20069  0.36007  1.0000
  O   O2        1.0  0.29085  0.79930  0.63993  1.0000
  O   O3        1.0  0.75243  0.37199  0.53445  1.0000
  O   O4        1.0  0.24757  0.62801  0.46555  1.0000
  O   O5        1.0  0.27302  0.11713  0.90602  1.0000
  O   O6        1.0  0.72698  0.88287  0.09398  1.0000
  O   O7        1.0  0.44342  0.37096  0.84232  1.0000
  O   O8        1.0  0.55658  0.62904  0.15768  1.0000
  O   O9        1.0  0.29707  0.04982  0.31372  1.0000
  O   O10       1.0  0.70294  0.95018  0.68627  1.0000
  O   O11       1.0  0.13280  0.91561  0.17747  1.0000
  O   O12       1.0  0.86720  0.08440  0.82253  1.0000
  O   O13       1.0  0.91284  0.25400  0.11149  1.0000
  O   O14       1.0  0.08716  0.74600  0.88850  1.0000
  O   O15       1.0  0.31793  0.18014  0.58143  1.0000
  O   O16       1.0  0.68207  0.81986  0.41858  1.0000
