data_image0
_chemical_formula_structural       Co2H20C38N8O14
_chemical_formula_sum              "Co2 H20 C38 N8 O14"
_cell_length_a       8.24983
_cell_length_b       10.104
_cell_length_c       12.4578
_cell_angle_alpha    111.382
_cell_angle_beta     106.292
_cell_angle_gamma    97.0901

_space_group_name_H-M_alt    "P 1"
_space_group_IT_number       1

loop_
  _space_group_symop_operation_xyz
  'x, y, z'

loop_
  _atom_site_type_symbol
  _atom_site_label
  _atom_site_symmetry_multiplicity
  _atom_site_fract_x
  _atom_site_fract_y
  _atom_site_fract_z
  _atom_site_occupancy
  Co  Co1       1.0  0.92043  0.97793  0.02338  1.0000
  Co  Co2       1.0  0.39694  0.95471  0.97666  1.0000
  H   H1        1.0  0.04619  0.22768  0.28672  1.0000
  H   H2        1.0  0.25934  0.94091  0.71346  1.0000
  H   H3        1.0  0.06580  0.49749  0.35968  1.0000
  H   H4        1.0  0.20579  0.13748  0.64016  1.0000
  H   H5        1.0  0.99594  0.60671  0.20664  1.0000
  H   H6        1.0  0.28912  0.39986  0.79303  1.0000
  H   H7        1.0  0.78817  0.11861  0.60163  1.0000
  H   H8        1.0  0.68625  0.51721  0.39831  1.0000
  H   H9        1.0  0.78336  0.85749  0.57055  1.0000
  H   H10       1.0  0.71261  0.28723  0.42943  1.0000
  H   H11       1.0  0.84917  0.79415  0.75060  1.0000
  H   H12       1.0  0.59834  0.04376  0.24948  1.0000
  H   H13       1.0  0.92086  0.56372  0.97626  1.0000
  H   H14       1.0  0.44423  0.58748  0.02351  1.0000
  H   H15       1.0  0.85203  0.38879  0.76098  1.0000
  H   H16       1.0  0.59083  0.62794  0.23874  1.0000
  H   H17       1.0  0.11926  0.85895  0.49933  1.0000
  H   H18       1.0  0.12048  0.35990  0.50100  1.0000
  H   H19       1.0  0.41646  0.78270  0.25753  1.0000
  H   H20       1.0  0.65914  0.52547  0.74260  1.0000
  C   C1        1.0  0.01872  0.27832  0.22226  1.0000
  C   C2        1.0  0.29611  0.05602  0.77779  1.0000
  C   C3        1.0  0.02979  0.42940  0.26164  1.0000
  C   C4        1.0  0.26772  0.16757  0.73825  1.0000
  C   C5        1.0  0.99287  0.49071  0.17726  1.0000
  C   C6        1.0  0.31519  0.31328  0.82251  1.0000
  C   C7        1.0  0.95036  0.40000  0.05129  1.0000
  C   C8        1.0  0.39853  0.34870  0.94853  1.0000
  C   C9        1.0  0.94188  0.24957  0.01966  1.0000
  C   C10       1.0  0.42167  0.23002  0.98032  1.0000
  C   C11       1.0  0.89772  0.14967  0.89579  1.0000
  C   C12       1.0  0.50141  0.25403  0.10419  1.0000
  C   C13       1.0  0.86409  0.19735  0.80037  1.0000
  C   C14       1.0  0.56335  0.39716  0.19954  1.0000
  C   C15       1.0  0.82018  0.08885  0.67934  1.0000
  C   C16       1.0  0.64051  0.40975  0.32059  1.0000
  C   C17       1.0  0.81775  0.94501  0.66207  1.0000
  C   C18       1.0  0.65530  0.28317  0.33790  1.0000
  C   C19       1.0  0.85323  0.90678  0.76243  1.0000
  C   C20       1.0  0.59043  0.14452  0.23759  1.0000
  C   C21       1.0  0.91569  0.44793  0.95383  1.0000
  C   C22       1.0  0.46146  0.49412  0.04595  1.0000
  C   C23       1.0  0.87610  0.35090  0.83389  1.0000
  C   C24       1.0  0.54190  0.51712  0.16589  1.0000
  C   C25       1.0  0.19445  0.86460  0.20287  1.0000
  C   C26       1.0  0.49168  0.66214  0.79705  1.0000
  C   C27       1.0  0.04905  0.91368  0.23201  1.0000
  C   C28       1.0  0.31723  0.68214  0.76797  1.0000
  C   C29       1.0  0.03234  0.91015  0.34264  1.0000
  C   C30       1.0  0.19006  0.56793  0.65749  1.0000
  C   C31       1.0  0.14031  0.86226  0.41785  1.0000
  C   C32       1.0  0.22290  0.44475  0.58239  1.0000
  C   C33       1.0  0.27878  0.81357  0.38440  1.0000
  C   C34       1.0  0.39473  0.42938  0.61577  1.0000
  C   C35       1.0  0.30499  0.81586  0.27920  1.0000
  C   C36       1.0  0.52603  0.53698  0.72085  1.0000
  C   C37       1.0  0.24317  0.88159  0.10227  1.0000
  C   C38       1.0  0.64087  0.77965  0.89766  1.0000
  N   N1        1.0  0.97202  0.18814  0.10273  1.0000
  N   N2        1.0  0.36888  0.08551  0.89734  1.0000
  N   N3        1.0  0.88959  0.00668  0.87752  1.0000
  N   N4        1.0  0.51166  0.12931  0.12250  1.0000
  N   N5        1.0  0.89046  0.96835  0.37714  1.0000
  N   N6        1.0  0.01357  0.59126  0.62299  1.0000
  N   N7        1.0  0.39398  0.76143  0.46087  1.0000
  N   N8        1.0  0.43325  0.30048  0.53942  1.0000
  O   O1        1.0  0.16295  0.94642  0.04045  1.0000
  O   O2        1.0  0.62251  0.90632  0.95953  1.0000
  O   O3        1.0  0.37783  0.84314  0.08114  1.0000
  O   O4        1.0  0.79656  0.76213  0.91881  1.0000
  O   O5        1.0  0.93522  0.96166  0.17168  1.0000
  O   O6        1.0  0.26359  0.79040  0.82829  1.0000
  O   O7        1.0  0.92497  0.10175  0.44294  1.0000
  O   O8        1.0  0.98197  0.65857  0.55696  1.0000
  O   O9        1.0  0.74595  0.88190  0.33795  1.0000
  O   O10       1.0  0.90828  0.54365  0.66210  1.0000
  O   O11       1.0  0.37860  0.77619  0.56141  1.0000
  O   O12       1.0  0.31722  0.21462  0.43906  1.0000
  O   O13       1.0  0.50414  0.70305  0.42330  1.0000
  O   O14       1.0  0.58091  0.27957  0.57685  1.0000
