data_image0
_chemical_formula_structural       Ag4H20C24S4N8
_chemical_formula_sum              "Ag4 H20 C24 S4 N8"
_cell_length_a       3.89517
_cell_length_b       10.9508
_cell_length_c       17.5642
_cell_angle_alpha    90
_cell_angle_beta     90.0006
_cell_angle_gamma    89.9997

_space_group_name_H-M_alt    "P 1"
_space_group_IT_number       1

loop_
  _space_group_symop_operation_xyz
  'x, y, z'

loop_
  _atom_site_type_symbol
  _atom_site_label
  _atom_site_symmetry_multiplicity
  _atom_site_fract_x
  _atom_site_fract_y
  _atom_site_fract_z
  _atom_site_occupancy
  Ag  Ag1       1.0  0.71630  0.79010  0.22827  1.0000
  Ag  Ag2       1.0  0.78370  0.20991  0.72827  1.0000
  Ag  Ag3       1.0  0.21630  0.70991  0.77173  1.0000
  Ag  Ag4       1.0  0.28370  0.29010  0.27173  1.0000
  H   H1        1.0  0.51813  0.06566  0.17232  1.0000
  H   H2        1.0  0.98188  0.93434  0.67232  1.0000
  H   H3        1.0  0.01811  0.43435  0.82768  1.0000
  H   H4        1.0  0.48188  0.56565  0.32768  1.0000
  H   H5        1.0  0.50804  0.18950  0.05300  1.0000
  H   H6        1.0  0.99195  0.81050  0.55300  1.0000
  H   H7        1.0  0.00806  0.31050  0.94700  1.0000
  H   H8        1.0  0.49196  0.68950  0.44700  1.0000
  H   H9        1.0  0.73632  0.09625  0.93194  1.0000
  H   H10       1.0  0.76368  0.90375  0.43194  1.0000
  H   H11       1.0  0.23634  0.40375  0.06806  1.0000
  H   H12       1.0  0.26368  0.59624  0.56806  1.0000
  H   H13       1.0  0.97153  0.88368  0.93675  1.0000
  H   H14       1.0  0.52847  0.11632  0.43675  1.0000
  H   H15       1.0  0.47153  0.61632  0.06325  1.0000
  H   H16       1.0  0.02847  0.38368  0.56325  1.0000
  H   H17       1.0  0.96275  0.77160  0.06152  1.0000
  H   H18       1.0  0.53724  0.22839  0.56152  1.0000
  H   H19       1.0  0.46275  0.72840  0.93848  1.0000
  H   H20       1.0  0.03725  0.27160  0.43848  1.0000
  C   C1        1.0  0.77236  0.49228  0.18966  1.0000
  C   C2        1.0  0.72761  0.50773  0.68966  1.0000
  C   C3        1.0  0.27237  0.00772  0.81034  1.0000
  C   C4        1.0  0.22763  0.99228  0.31034  1.0000
  C   C5        1.0  0.61682  0.02864  0.11895  1.0000
  C   C6        1.0  0.88318  0.97136  0.61896  1.0000
  C   C7        1.0  0.11680  0.47136  0.88104  1.0000
  C   C8        1.0  0.38319  0.52864  0.38104  1.0000
  C   C9        1.0  0.61139  0.09712  0.05205  1.0000
  C   C10       1.0  0.88861  0.90288  0.55205  1.0000
  C   C11       1.0  0.11140  0.40288  0.94795  1.0000
  C   C12       1.0  0.38862  0.59712  0.44795  1.0000
  C   C13       1.0  0.73871  0.04542  0.98527  1.0000
  C   C14       1.0  0.76129  0.95458  0.48527  1.0000
  C   C15       1.0  0.23872  0.45458  0.01472  1.0000
  C   C16       1.0  0.26129  0.54542  0.51472  1.0000
  C   C17       1.0  0.86791  0.92667  0.98775  1.0000
  C   C18       1.0  0.63209  0.07333  0.48775  1.0000
  C   C19       1.0  0.36792  0.57332  0.01225  1.0000
  C   C20       1.0  0.13210  0.42667  0.51225  1.0000
  C   C21       1.0  0.86399  0.86453  0.05685  1.0000
  C   C22       1.0  0.63600  0.13546  0.55685  1.0000
  C   C23       1.0  0.36401  0.63546  0.94314  1.0000
  C   C24       1.0  0.13601  0.36454  0.44315  1.0000
  S   S1        1.0  0.77206  0.34268  0.18166  1.0000
  S   S2        1.0  0.72791  0.65732  0.68166  1.0000
  S   S3        1.0  0.27208  0.15732  0.81835  1.0000
  S   S4        1.0  0.22793  0.84268  0.31834  1.0000
  N   N1        1.0  0.77322  0.59997  0.19308  1.0000
  N   N2        1.0  0.72675  0.40004  0.69308  1.0000
  N   N3        1.0  0.27325  0.90004  0.80693  1.0000
  N   N4        1.0  0.22677  0.09997  0.30692  1.0000
  N   N5        1.0  0.73969  0.91376  0.12155  1.0000
  N   N6        1.0  0.76030  0.08623  0.62155  1.0000
  N   N7        1.0  0.23969  0.58624  0.87846  1.0000
  N   N8        1.0  0.26031  0.41377  0.37845  1.0000
