data_image0
_chemical_formula_structural       Dy2CuH28C20O22
_chemical_formula_sum              "Dy2 Cu1 H28 C20 O22"
_cell_length_a       6.96517
_cell_length_b       10.0171
_cell_length_c       11.3615
_cell_angle_alpha    108.046
_cell_angle_beta     101.534
_cell_angle_gamma    98.4988

_space_group_name_H-M_alt    "P 1"
_space_group_IT_number       1

loop_
  _space_group_symop_operation_xyz
  'x, y, z'

loop_
  _atom_site_type_symbol
  _atom_site_label
  _atom_site_symmetry_multiplicity
  _atom_site_fract_x
  _atom_site_fract_y
  _atom_site_fract_z
  _atom_site_occupancy
  Dy  Dy1       1.0  0.63384  0.71514  0.09752  1.0000
  Dy  Dy2       1.0  0.36616  0.28486  0.90248  1.0000
  Cu  Cu1       1.0  1.00000  0.00000  0.50000  1.0000
  H   H1        1.0  0.43150  0.58988  0.34239  1.0000
  H   H2        1.0  0.56850  0.41012  0.65761  1.0000
  H   H3        1.0  0.60966  0.59093  0.47848  1.0000
  H   H4        1.0  0.39034  0.40908  0.52153  1.0000
  H   H5        1.0  0.51419  0.64854  0.67499  1.0000
  H   H6        1.0  0.48580  0.35147  0.32501  1.0000
  H   H7        1.0  0.32359  0.75750  0.70133  1.0000
  H   H8        1.0  0.67641  0.24250  0.29867  1.0000
  H   H9        1.0  0.98614  0.53503  0.19635  1.0000
  H   H10       1.0  0.01386  0.46496  0.80365  1.0000
  H   H11       1.0  0.89367  0.47138  0.30671  1.0000
  H   H12       1.0  0.10634  0.52862  0.69329  1.0000
  H   H13       1.0  0.03888  0.90291  0.14498  1.0000
  H   H14       1.0  0.96111  0.09709  0.85502  1.0000
  H   H15       1.0  0.06662  0.85414  0.26691  1.0000
  H   H16       1.0  0.93338  0.14587  0.73309  1.0000
  H   H17       1.0  0.16414  0.17228  0.25960  1.0000
  H   H18       1.0  0.83586  0.82772  0.74040  1.0000
  H   H19       1.0  0.00691  0.26760  0.35483  1.0000
  H   H20       1.0  0.99309  0.73240  0.64517  1.0000
  H   H21       1.0  0.52482  0.00444  0.14368  1.0000
  H   H22       1.0  0.47517  0.99556  0.85632  1.0000
  H   H23       1.0  0.66711  0.01599  0.27718  1.0000
  H   H24       1.0  0.33289  0.98401  0.72282  1.0000
  H   H25       1.0  0.24106  0.56555  0.10824  1.0000
  H   H26       1.0  0.75894  0.43445  0.89176  1.0000
  H   H27       1.0  0.29988  0.71306  0.23288  1.0000
  H   H28       1.0  0.70012  0.28694  0.76712  1.0000
  C   C1        1.0  0.68668  0.76806  0.42096  1.0000
  C   C2        1.0  0.31333  0.23194  0.57904  1.0000
  C   C3        1.0  0.52695  0.65873  0.43765  1.0000
  C   C4        1.0  0.47305  0.34128  0.56235  1.0000
  C   C5        1.0  0.40554  0.72562  0.52588  1.0000
  C   C6        1.0  0.59446  0.27438  0.47412  1.0000
  C   C7        1.0  0.26731  0.81079  0.47974  1.0000
  C   C8        1.0  0.73269  0.18921  0.52026  1.0000
  C   C9        1.0  0.41427  0.70940  0.63948  1.0000
  C   C10       1.0  0.58573  0.29061  0.36052  1.0000
  C   C11       1.0  0.71049  0.37848  0.11528  1.0000
  C   C12       1.0  0.28951  0.62152  0.88472  1.0000
  C   C13       1.0  0.91718  0.43690  0.20981  1.0000
  C   C14       1.0  0.08283  0.56309  0.79019  1.0000
  C   C15       1.0  0.04629  0.32840  0.19599  1.0000
  C   C16       1.0  0.95370  0.67159  0.80401  1.0000
  C   C17       1.0  0.14465  0.30265  0.08786  1.0000
  C   C18       1.0  0.85535  0.69734  0.91213  1.0000
  C   C19       1.0  0.07417  0.25296  0.27439  1.0000
  C   C20       1.0  0.92582  0.74703  0.72561  1.0000
  O   O1        1.0  0.73289  0.74519  0.31551  1.0000
  O   O2        1.0  0.26711  0.25481  0.68449  1.0000
  O   O3        1.0  0.77518  0.87743  0.52162  1.0000
  O   O4        1.0  0.22483  0.12257  0.47838  1.0000
  O   O5        1.0  0.23097  0.80032  0.36343  1.0000
  O   O6        1.0  0.76904  0.19969  0.63657  1.0000
  O   O7        1.0  0.18891  0.88962  0.56196  1.0000
  O   O8        1.0  0.81109  0.11038  0.43804  1.0000
  O   O9        1.0  0.64010  0.24523  0.05768  1.0000
  O   O10       1.0  0.35990  0.75476  0.94232  1.0000
  O   O11       1.0  0.60631  0.46954  0.09460  1.0000
  O   O12       1.0  0.39369  0.53045  0.90540  1.0000
  O   O13       1.0  0.14839  0.39313  0.02774  1.0000
  O   O14       1.0  0.85161  0.60687  0.97226  1.0000
  O   O15       1.0  0.22657  0.19630  0.05599  1.0000
  O   O16       1.0  0.77343  0.80370  0.94400  1.0000
  O   O17       1.0  0.96687  0.87182  0.20037  1.0000
  O   O18       1.0  0.03313  0.12819  0.79964  1.0000
  O   O19       1.0  0.57813  0.94858  0.19356  1.0000
  O   O20       1.0  0.42187  0.05142  0.80644  1.0000
  O   O21       1.0  0.32981  0.66426  0.15055  1.0000
  O   O22       1.0  0.67019  0.33573  0.84945  1.0000
