data_image0
_chemical_formula_structural       Gd2CuH28C20O22
_chemical_formula_sum              "Gd2 Cu1 H28 C20 O22"
_cell_length_a       6.9793
_cell_length_b       10.0224
_cell_length_c       11.4018
_cell_angle_alpha    107.838
_cell_angle_beta     101.728
_cell_angle_gamma    98.3478

_space_group_name_H-M_alt    "P 1"
_space_group_IT_number       1

loop_
  _space_group_symop_operation_xyz
  'x, y, z'

loop_
  _atom_site_type_symbol
  _atom_site_label
  _atom_site_symmetry_multiplicity
  _atom_site_fract_x
  _atom_site_fract_y
  _atom_site_fract_z
  _atom_site_occupancy
  Gd  Gd1       1.0  0.63426  0.71591  0.09840  1.0000
  Gd  Gd2       1.0  0.36574  0.28409  0.90160  1.0000
  Cu  Cu1       1.0  0.00000  1.00000  0.50000  1.0000
  H   H1        1.0  0.43366  0.59142  0.34436  1.0000
  H   H2        1.0  0.56634  0.40858  0.65565  1.0000
  H   H3        1.0  0.61134  0.59214  0.48020  1.0000
  H   H4        1.0  0.38866  0.40786  0.51980  1.0000
  H   H5        1.0  0.51412  0.64779  0.67494  1.0000
  H   H6        1.0  0.48588  0.35221  0.32507  1.0000
  H   H7        1.0  0.32302  0.75620  0.70038  1.0000
  H   H8        1.0  0.67697  0.24380  0.29963  1.0000
  H   H9        1.0  0.98679  0.53303  0.19699  1.0000
  H   H10       1.0  0.01320  0.46698  0.80300  1.0000
  H   H11       1.0  0.89414  0.46825  0.30632  1.0000
  H   H12       1.0  0.10587  0.53175  0.69368  1.0000
  H   H13       1.0  0.04180  0.90326  0.14583  1.0000
  H   H14       1.0  0.95820  0.09673  0.85416  1.0000
  H   H15       1.0  0.06909  0.85548  0.26805  1.0000
  H   H16       1.0  0.93092  0.14452  0.73195  1.0000
  H   H17       1.0  0.16407  0.16915  0.25842  1.0000
  H   H18       1.0  0.83592  0.83086  0.74158  1.0000
  H   H19       1.0  0.00680  0.26351  0.35311  1.0000
  H   H20       1.0  0.99320  0.73649  0.64689  1.0000
  H   H21       1.0  0.52462  0.00810  0.14590  1.0000
  H   H22       1.0  0.47539  0.99190  0.85410  1.0000
  H   H23       1.0  0.66561  0.01774  0.27876  1.0000
  H   H24       1.0  0.33440  0.98226  0.72124  1.0000
  H   H25       1.0  0.23915  0.56478  0.10925  1.0000
  H   H26       1.0  0.76086  0.43522  0.89076  1.0000
  H   H27       1.0  0.29762  0.71167  0.23358  1.0000
  H   H28       1.0  0.70238  0.28833  0.76643  1.0000
  C   C1        1.0  0.68781  0.76901  0.42274  1.0000
  C   C2        1.0  0.31219  0.23098  0.57726  1.0000
  C   C3        1.0  0.52846  0.65995  0.43935  1.0000
  C   C4        1.0  0.47155  0.34004  0.56066  1.0000
  C   C5        1.0  0.40647  0.72610  0.52662  1.0000
  C   C6        1.0  0.59354  0.27390  0.47338  1.0000
  C   C7        1.0  0.26769  0.81096  0.48007  1.0000
  C   C8        1.0  0.73232  0.18904  0.51993  1.0000
  C   C9        1.0  0.41429  0.70875  0.63937  1.0000
  C   C10       1.0  0.58571  0.29125  0.36063  1.0000
  C   C11       1.0  0.71187  0.37700  0.11529  1.0000
  C   C12       1.0  0.28812  0.62299  0.88471  1.0000
  C   C13       1.0  0.91793  0.43474  0.20993  1.0000
  C   C14       1.0  0.08206  0.56527  0.79007  1.0000
  C   C15       1.0  0.04699  0.32635  0.19596  1.0000
  C   C16       1.0  0.95301  0.67366  0.80404  1.0000
  C   C17       1.0  0.14463  0.30153  0.08827  1.0000
  C   C18       1.0  0.85537  0.69848  0.91173  1.0000
  C   C19       1.0  0.07420  0.24972  0.27328  1.0000
  C   C20       1.0  0.92580  0.75029  0.72672  1.0000
  O   O1        1.0  0.73451  0.74554  0.31795  1.0000
  O   O2        1.0  0.26549  0.25446  0.68204  1.0000
  O   O3        1.0  0.77560  0.87851  0.52255  1.0000
  O   O4        1.0  0.22440  0.12149  0.47745  1.0000
  O   O5        1.0  0.23124  0.80040  0.36412  1.0000
  O   O6        1.0  0.76876  0.19959  0.63588  1.0000
  O   O7        1.0  0.18913  0.88951  0.56166  1.0000
  O   O8        1.0  0.81087  0.11049  0.43834  1.0000
  O   O9        1.0  0.60791  0.46847  0.09507  1.0000
  O   O10       1.0  0.39208  0.53153  0.90493  1.0000
  O   O11       1.0  0.64218  0.24418  0.05758  1.0000
  O   O12       1.0  0.35781  0.75582  0.94243  1.0000
  O   O13       1.0  0.14775  0.39261  0.02883  1.0000
  O   O14       1.0  0.85225  0.60739  0.97117  1.0000
  O   O15       1.0  0.22627  0.19525  0.05629  1.0000
  O   O16       1.0  0.77372  0.80475  0.94371  1.0000
  O   O17       1.0  0.96967  0.87303  0.20121  1.0000
  O   O18       1.0  0.03033  0.12697  0.79879  1.0000
  O   O19       1.0  0.57671  0.95127  0.19525  1.0000
  O   O20       1.0  0.42329  0.04873  0.80475  1.0000
  O   O21       1.0  0.32710  0.66340  0.15149  1.0000
  O   O22       1.0  0.67291  0.33660  0.84852  1.0000
