data_image0
_chemical_formula_structural       Cu2Ag4H30C36S6N12
_chemical_formula_sum              "Cu2 Ag4 H30 C36 S6 N12"
_cell_length_a       8.23467
_cell_length_b       8.94581
_cell_length_c       14.5996
_cell_angle_alpha    90.0011
_cell_angle_beta     89.9995
_cell_angle_gamma    93.1638

_space_group_name_H-M_alt    "P 1"
_space_group_IT_number       1

loop_
  _space_group_symop_operation_xyz
  'x, y, z'

loop_
  _atom_site_type_symbol
  _atom_site_label
  _atom_site_symmetry_multiplicity
  _atom_site_fract_x
  _atom_site_fract_y
  _atom_site_fract_z
  _atom_site_occupancy
  Cu  Cu1       1.0  0.86039  0.32392  0.25271  1.0000
  Cu  Cu2       1.0  0.36039  0.32392  0.74730  1.0000
  Ag  Ag1       1.0  0.38049  0.64484  0.07728  1.0000
  Ag  Ag2       1.0  0.88049  0.64484  0.92273  1.0000
  Ag  Ag3       1.0  0.38096  0.66408  0.41524  1.0000
  Ag  Ag4       1.0  0.88095  0.66408  0.58476  1.0000
  H   H1        1.0  0.21510  0.88383  0.19441  1.0000
  H   H2        1.0  0.71511  0.88381  0.80558  1.0000
  H   H3        1.0  0.18045  0.16106  0.20283  1.0000
  H   H4        1.0  0.68046  0.16105  0.79716  1.0000
  H   H5        1.0  0.32686  0.32823  0.08918  1.0000
  H   H6        1.0  0.82688  0.32822  0.91082  1.0000
  H   H7        1.0  0.49754  0.21322  0.96875  1.0000
  H   H8        1.0  0.99755  0.21321  0.03125  1.0000
  H   H9        1.0  0.51984  0.93470  0.96949  1.0000
  H   H10       1.0  0.01984  0.93470  0.03051  1.0000
  H   H11       1.0  0.52840  0.94216  0.30500  1.0000
  H   H12       1.0  0.02839  0.94217  0.69500  1.0000
  H   H13       1.0  0.52186  0.22197  0.29910  1.0000
  H   H14       1.0  0.02186  0.22198  0.70090  1.0000
  H   H15       1.0  0.34517  0.34980  0.41165  1.0000
  H   H16       1.0  0.84517  0.34980  0.58835  1.0000
  H   H17       1.0  0.18363  0.19244  0.52521  1.0000
  H   H18       1.0  0.68364  0.19244  0.47478  1.0000
  H   H19       1.0  0.20159  0.91367  0.52049  1.0000
  H   H20       1.0  0.70159  0.91366  0.47951  1.0000
  H   H21       1.0  0.70216  0.07853  0.13932  1.0000
  H   H22       1.0  0.20216  0.07853  0.86067  1.0000
  H   H23       1.0  0.69424  0.79838  0.12880  1.0000
  H   H24       1.0  0.19425  0.79838  0.87119  1.0000
  H   H25       1.0  0.84954  0.65468  0.24534  1.0000
  H   H26       1.0  0.34955  0.65468  0.75466  1.0000
  H   H27       1.0  0.00771  0.80166  0.36631  1.0000
  H   H28       1.0  0.50772  0.80167  0.63369  1.0000
  H   H29       1.0  0.00379  0.08060  0.36574  1.0000
  H   H30       1.0  0.50379  0.08060  0.63426  1.0000
  C   C1        1.0  0.69106  0.44263  0.07990  1.0000
  C   C2        1.0  0.19105  0.44263  0.92011  1.0000
  C   C3        1.0  0.20905  0.47249  0.24986  1.0000
  C   C4        1.0  0.70905  0.47249  0.75015  1.0000
  C   C5        1.0  0.70068  0.47645  0.41787  1.0000
  C   C6        1.0  0.20068  0.47645  0.58213  1.0000
  C   C7        1.0  0.27518  0.96093  0.14556  1.0000
  C   C8        1.0  0.77519  0.96093  0.85444  1.0000
  C   C9        1.0  0.25684  0.11445  0.15040  1.0000
  C   C10       1.0  0.75685  0.11444  0.84959  1.0000
  C   C11       1.0  0.33817  0.20752  0.08679  1.0000
  C   C12       1.0  0.83817  0.20751  0.91320  1.0000
  C   C13       1.0  0.43382  0.14388  0.02006  1.0000
  C   C14       1.0  0.93382  0.14387  0.97994  1.0000
  C   C15       1.0  0.44575  0.98936  0.02006  1.0000
  C   C16       1.0  0.94575  0.98935  0.97994  1.0000
  C   C17       1.0  0.45330  0.00249  0.35242  1.0000
  C   C18       1.0  0.95330  0.00249  0.64758  1.0000
  C   C19       1.0  0.44883  0.15775  0.34909  1.0000
  C   C20       1.0  0.94883  0.15775  0.65091  1.0000
  C   C21       1.0  0.35093  0.22841  0.41179  1.0000
  C   C22       1.0  0.85093  0.22841  0.58821  1.0000
  C   C23       1.0  0.26042  0.14132  0.47483  1.0000
  C   C24       1.0  0.76042  0.14132  0.52517  1.0000
  C   C25       1.0  0.27096  0.98667  0.47305  1.0000
  C   C26       1.0  0.77096  0.98667  0.52695  1.0000
  C   C27       1.0  0.76805  0.01208  0.18810  1.0000
  C   C28       1.0  0.26805  0.01209  0.81190  1.0000
  C   C29       1.0  0.76429  0.85631  0.18282  1.0000
  C   C30       1.0  0.26429  0.85632  0.81718  1.0000
  C   C31       1.0  0.85052  0.77668  0.24723  1.0000
  C   C32       1.0  0.35053  0.77669  0.75276  1.0000
  C   C33       1.0  0.93807  0.85794  0.31440  1.0000
  C   C34       1.0  0.43808  0.85794  0.68559  1.0000
  C   C35       1.0  0.93616  0.01361  0.31467  1.0000
  C   C36       1.0  0.43616  0.01361  0.68533  1.0000
  S   S1        1.0  0.61265  0.53128  0.99271  1.0000
  S   S2        1.0  0.11265  0.53129  0.00730  1.0000
  S   S3        1.0  0.38797  0.56415  0.24913  1.0000
  S   S4        1.0  0.88796  0.56415  0.75087  1.0000
  S   S5        1.0  0.61586  0.55946  0.50493  1.0000
  S   S6        1.0  0.11587  0.55948  0.49508  1.0000
  N   N1        1.0  0.74642  0.37573  0.14102  1.0000
  N   N2        1.0  0.24641  0.37573  0.85899  1.0000
  N   N3        1.0  0.08303  0.40299  0.24972  1.0000
  N   N4        1.0  0.58302  0.40298  0.75029  1.0000
  N   N5        1.0  0.75924  0.41141  0.35702  1.0000
  N   N6        1.0  0.25923  0.41141  0.64298  1.0000
  N   N7        1.0  0.36812  0.89881  0.08161  1.0000
  N   N8        1.0  0.86813  0.89880  0.91839  1.0000
  N   N9        1.0  0.36621  0.91784  0.41309  1.0000
  N   N10       1.0  0.86621  0.91784  0.58691  1.0000
  N   N11       1.0  0.85255  0.09119  0.25278  1.0000
  N   N12       1.0  0.35255  0.09119  0.74722  1.0000
