data_image0
_chemical_formula_structural       Tb2CuH28C20O22
_chemical_formula_sum              "Tb2 Cu1 H28 C20 O22"
_cell_length_a       6.98657
_cell_length_b       9.989
_cell_length_c       11.3913
_cell_angle_alpha    107.865
_cell_angle_beta     101.729
_cell_angle_gamma    98.3628

_space_group_name_H-M_alt    "P 1"
_space_group_IT_number       1

loop_
  _space_group_symop_operation_xyz
  'x, y, z'

loop_
  _atom_site_type_symbol
  _atom_site_label
  _atom_site_symmetry_multiplicity
  _atom_site_fract_x
  _atom_site_fract_y
  _atom_site_fract_z
  _atom_site_occupancy
  Tb  Tb1       1.0  0.63371  0.71616  0.09791  1.0000
  Tb  Tb2       1.0  0.36630  0.28384  0.90209  1.0000
  Cu  Cu1       1.0  1.00000  0.00000  0.50000  1.0000
  H   H1        1.0  0.03907  0.90348  0.14549  1.0000
  H   H2        1.0  0.96093  0.09652  0.85451  1.0000
  H   H3        1.0  0.06664  0.85463  0.26730  1.0000
  H   H4        1.0  0.93336  0.14538  0.73271  1.0000
  H   H5        1.0  0.52769  0.00879  0.14472  1.0000
  H   H6        1.0  0.47230  0.99121  0.85528  1.0000
  H   H7        1.0  0.66736  0.01803  0.27791  1.0000
  H   H8        1.0  0.33264  0.98197  0.72209  1.0000
  H   H9        1.0  0.29884  0.71291  0.23270  1.0000
  H   H10       1.0  0.70117  0.28709  0.76729  1.0000
  H   H11       1.0  0.24053  0.56559  0.10839  1.0000
  H   H12       1.0  0.75948  0.43441  0.89160  1.0000
  H   H13       1.0  0.43263  0.59054  0.34262  1.0000
  H   H14       1.0  0.56736  0.40947  0.65738  1.0000
  H   H15       1.0  0.61006  0.59060  0.47840  1.0000
  H   H16       1.0  0.38994  0.40941  0.52160  1.0000
  H   H17       1.0  0.51484  0.64718  0.67385  1.0000
  H   H18       1.0  0.48516  0.35282  0.32614  1.0000
  H   H19       1.0  0.32337  0.75534  0.69962  1.0000
  H   H20       1.0  0.67663  0.24467  0.30038  1.0000
  H   H21       1.0  0.98572  0.53291  0.19452  1.0000
  H   H22       1.0  0.01429  0.46708  0.80548  1.0000
  H   H23       1.0  0.89553  0.46973  0.30556  1.0000
  H   H24       1.0  0.10448  0.53027  0.69444  1.0000
  H   H25       1.0  0.16413  0.16871  0.25749  1.0000
  H   H26       1.0  0.83585  0.83127  0.74250  1.0000
  H   H27       1.0  0.00619  0.26278  0.35201  1.0000
  H   H28       1.0  0.99380  0.73720  0.64799  1.0000
  C   C1        1.0  0.68703  0.76845  0.42152  1.0000
  C   C2        1.0  0.31297  0.23155  0.57848  1.0000
  C   C3        1.0  0.52751  0.65892  0.43780  1.0000
  C   C4        1.0  0.47248  0.34108  0.56220  1.0000
  C   C5        1.0  0.40589  0.72515  0.52538  1.0000
  C   C6        1.0  0.59411  0.27486  0.47462  1.0000
  C   C7        1.0  0.26713  0.81036  0.47917  1.0000
  C   C8        1.0  0.73287  0.18964  0.52083  1.0000
  C   C9        1.0  0.41452  0.70802  0.63840  1.0000
  C   C10       1.0  0.58548  0.29198  0.36159  1.0000
  C   C11       1.0  0.71106  0.37657  0.11501  1.0000
  C   C12       1.0  0.28894  0.62343  0.88500  1.0000
  C   C13       1.0  0.91784  0.43485  0.20875  1.0000
  C   C14       1.0  0.08216  0.56515  0.79126  1.0000
  C   C15       1.0  0.04701  0.32622  0.19496  1.0000
  C   C16       1.0  0.95299  0.67378  0.80504  1.0000
  C   C17       1.0  0.14540  0.30137  0.08753  1.0000
  C   C18       1.0  0.85460  0.69862  0.91247  1.0000
  C   C19       1.0  0.07392  0.24925  0.27232  1.0000
  C   C20       1.0  0.92607  0.75073  0.72767  1.0000
  O   O1        1.0  0.73308  0.74570  0.31646  1.0000
  O   O2        1.0  0.26692  0.25430  0.68354  1.0000
  O   O3        1.0  0.77571  0.87752  0.52190  1.0000
  O   O4        1.0  0.22429  0.12249  0.47810  1.0000
  O   O5        1.0  0.23073  0.80029  0.36322  1.0000
  O   O6        1.0  0.76927  0.19972  0.63678  1.0000
  O   O7        1.0  0.18852  0.88865  0.56107  1.0000
  O   O8        1.0  0.81147  0.11136  0.43892  1.0000
  O   O9        1.0  0.60688  0.46812  0.09466  1.0000
  O   O10       1.0  0.39313  0.53188  0.90535  1.0000
  O   O11       1.0  0.64092  0.24321  0.05779  1.0000
  O   O12       1.0  0.35909  0.75679  0.94221  1.0000
  O   O13       1.0  0.14902  0.39267  0.02800  1.0000
  O   O14       1.0  0.85099  0.60733  0.97201  1.0000
  O   O15       1.0  0.22719  0.19480  0.05571  1.0000
  O   O16       1.0  0.77280  0.80520  0.94429  1.0000
  O   O17       1.0  0.96721  0.87268  0.20078  1.0000
  O   O18       1.0  0.03279  0.12732  0.79922  1.0000
  O   O19       1.0  0.57837  0.95157  0.19430  1.0000
  O   O20       1.0  0.42163  0.04843  0.80569  1.0000
  O   O21       1.0  0.32860  0.66449  0.15065  1.0000
  O   O22       1.0  0.67141  0.33551  0.84935  1.0000
