data_image0
_chemical_formula_structural       Sm4H32C24N4O28
_chemical_formula_sum              "Sm4 H32 C24 N4 O28"
_cell_length_a       6.67124
_cell_length_b       6.86945
_cell_length_c       19.7055
_cell_angle_alpha    93.2779
_cell_angle_beta     90
_cell_angle_gamma    90.0003

_space_group_name_H-M_alt    "P 1"
_space_group_IT_number       1

loop_
  _space_group_symop_operation_xyz
  'x, y, z'

loop_
  _atom_site_type_symbol
  _atom_site_label
  _atom_site_symmetry_multiplicity
  _atom_site_fract_x
  _atom_site_fract_y
  _atom_site_fract_z
  _atom_site_occupancy
  Sm  Sm1       1.0  0.75813  0.77231  0.39870  1.0000
  Sm  Sm2       1.0  0.25814  0.72768  0.10130  1.0000
  Sm  Sm3       1.0  0.24186  0.22768  0.60130  1.0000
  Sm  Sm4       1.0  0.74186  0.27233  0.89870  1.0000
  H   H1        1.0  0.70871  0.30542  0.29309  1.0000
  H   H2        1.0  0.20872  0.19456  0.20691  1.0000
  H   H3        1.0  0.29130  0.69458  0.70690  1.0000
  H   H4        1.0  0.79128  0.80543  0.79309  1.0000
  H   H5        1.0  0.50939  0.19106  0.33419  1.0000
  H   H6        1.0  0.00940  0.30893  0.16582  1.0000
  H   H7        1.0  0.49062  0.80894  0.66581  1.0000
  H   H8        1.0  0.99060  0.69108  0.83418  1.0000
  H   H9        1.0  0.30523  0.50513  0.25792  1.0000
  H   H10       1.0  0.80522  0.99486  0.24208  1.0000
  H   H11       1.0  0.69477  0.49487  0.74208  1.0000
  H   H12       1.0  0.19478  0.00514  0.75792  1.0000
  H   H13       1.0  0.56211  0.49374  0.23565  1.0000
  H   H14       1.0  0.06210  0.00625  0.26435  1.0000
  H   H15       1.0  0.43789  0.50626  0.76435  1.0000
  H   H16       1.0  0.93790  0.99375  0.73565  1.0000
  H   H17       1.0  0.36571  0.41389  0.42959  1.0000
  H   H18       1.0  0.86573  0.08611  0.07041  1.0000
  H   H19       1.0  0.63429  0.58610  0.57040  1.0000
  H   H20       1.0  0.13427  0.91390  0.92960  1.0000
  H   H21       1.0  0.20275  0.44108  0.35989  1.0000
  H   H22       1.0  0.70276  0.05892  0.14011  1.0000
  H   H23       1.0  0.79725  0.55891  0.64011  1.0000
  H   H24       1.0  0.29724  0.94109  0.85989  1.0000
  H   H25       1.0  0.72004  0.96822  0.53534  1.0000
  H   H26       1.0  0.22005  0.53178  0.96466  1.0000
  H   H27       1.0  0.27995  0.03177  0.46466  1.0000
  H   H28       1.0  0.77995  0.46822  0.03534  1.0000
  H   H29       1.0  0.92637  0.85517  0.54183  1.0000
  H   H30       1.0  0.42638  0.64483  0.95817  1.0000
  H   H31       1.0  0.07363  0.14483  0.45817  1.0000
  H   H32       1.0  0.57362  0.35517  0.04183  1.0000
  C   C1        1.0  0.75707  0.29331  0.39802  1.0000
  C   C2        1.0  0.25707  0.20669  0.10199  1.0000
  C   C3        1.0  0.24293  0.70669  0.60198  1.0000
  C   C4        1.0  0.74293  0.79332  0.89802  1.0000
  C   C5        1.0  0.61347  0.31516  0.33878  1.0000
  C   C6        1.0  0.11348  0.18484  0.16122  1.0000
  C   C7        1.0  0.38654  0.68484  0.66122  1.0000
  C   C8        1.0  0.88652  0.81517  0.83878  1.0000
  C   C9        1.0  0.45535  0.55951  0.27276  1.0000
  C   C10       1.0  0.95535  0.94048  0.22725  1.0000
  C   C11       1.0  0.54465  0.44049  0.72724  1.0000
  C   C12       1.0  0.04465  0.05952  0.77275  1.0000
  C   C13       1.0  0.46346  0.77830  0.26393  1.0000
  C   C14       1.0  0.96343  0.72171  0.23608  1.0000
  C   C15       1.0  0.53656  0.22171  0.73608  1.0000
  C   C16       1.0  0.03655  0.27830  0.76393  1.0000
  C   C17       1.0  0.33425  0.50461  0.38667  1.0000
  C   C18       1.0  0.83426  0.99538  0.11333  1.0000
  C   C19       1.0  0.66576  0.49538  0.61333  1.0000
  C   C20       1.0  0.16574  0.00462  0.88667  1.0000
  C   C21       1.0  0.28315  0.70706  0.41747  1.0000
  C   C22       1.0  0.78316  0.79294  0.08253  1.0000
  C   C23       1.0  0.71684  0.29294  0.58253  1.0000
  C   C24       1.0  0.21685  0.20707  0.91747  1.0000
  N   N1        1.0  0.51178  0.50583  0.34153  1.0000
  N   N2        1.0  0.01179  0.99416  0.15847  1.0000
  N   N3        1.0  0.48822  0.49417  0.65847  1.0000
  N   N4        1.0  0.98821  0.00584  0.84153  1.0000
  O   O1        1.0  0.42627  0.80768  0.44505  1.0000
  O   O2        1.0  0.92628  0.69231  0.05494  1.0000
  O   O3        1.0  0.57373  0.19231  0.55495  1.0000
  O   O4        1.0  0.07372  0.30769  0.94505  1.0000
  O   O5        1.0  0.10575  0.76840  0.41599  1.0000
  O   O6        1.0  0.60575  0.73160  0.08402  1.0000
  O   O7        1.0  0.89425  0.23158  0.58402  1.0000
  O   O8        1.0  0.39424  0.26841  0.91598  1.0000
  O   O9        1.0  0.53839  0.88727  0.31142  1.0000
  O   O10       1.0  0.03838  0.61272  0.18858  1.0000
  O   O11       1.0  0.46160  0.11272  0.68858  1.0000
  O   O12       1.0  0.96162  0.38728  0.81142  1.0000
  O   O13       1.0  0.40055  0.83939  0.20826  1.0000
  O   O14       1.0  0.90056  0.66059  0.29173  1.0000
  O   O15       1.0  0.59944  0.16061  0.79173  1.0000
  O   O16       1.0  0.09945  0.33940  0.70826  1.0000
  O   O17       1.0  0.83045  0.12418  0.40613  1.0000
  O   O18       1.0  0.33046  0.37582  0.09387  1.0000
  O   O19       1.0  0.16955  0.87581  0.59387  1.0000
  O   O20       1.0  0.66955  0.62419  0.90613  1.0000
  O   O21       1.0  0.80496  0.44516  0.43383  1.0000
  O   O22       1.0  0.30496  0.05484  0.06617  1.0000
  O   O23       1.0  0.19503  0.55484  0.56617  1.0000
  O   O24       1.0  0.69504  0.94516  0.93383  1.0000
  O   O25       1.0  0.79166  0.84629  0.52065  1.0000
  O   O26       1.0  0.29167  0.65372  0.97935  1.0000
  O   O27       1.0  0.20833  0.15371  0.47935  1.0000
  O   O28       1.0  0.70833  0.34629  0.02065  1.0000
