data_image0
_chemical_formula_structural       Cd2H20C12N16O10
_chemical_formula_sum              "Cd2 H20 C12 N16 O10"
_cell_length_a       6.69829
_cell_length_b       8.68173
_cell_length_c       11.7344
_cell_angle_alpha    103.764
_cell_angle_beta     89.9937
_cell_angle_gamma    112.689

_space_group_name_H-M_alt    "P 1"
_space_group_IT_number       1

loop_
  _space_group_symop_operation_xyz
  'x, y, z'

loop_
  _atom_site_type_symbol
  _atom_site_label
  _atom_site_symmetry_multiplicity
  _atom_site_fract_x
  _atom_site_fract_y
  _atom_site_fract_z
  _atom_site_occupancy
  Cd  Cd1       1.0  0.34171  0.00006  0.25001  1.0000
  Cd  Cd2       1.0  0.65829  0.99995  0.74999  1.0000
  H   H1        1.0  0.88637  0.99191  0.18366  1.0000
  H   H2        1.0  0.89444  0.00823  0.31635  1.0000
  H   H3        1.0  0.11363  0.00809  0.81634  1.0000
  H   H4        1.0  0.10556  0.99177  0.68365  1.0000
  H   H5        1.0  0.77539  0.66321  0.22563  1.0000
  H   H6        1.0  0.11248  0.33700  0.27441  1.0000
  H   H7        1.0  0.22461  0.33679  0.77437  1.0000
  H   H8        1.0  0.88752  0.66300  0.72559  1.0000
  H   H9        1.0  0.64080  0.36008  0.47193  1.0000
  H   H10       1.0  0.28014  0.63989  0.02795  1.0000
  H   H11       1.0  0.35920  0.63991  0.52807  1.0000
  H   H12       1.0  0.71986  0.36011  0.97205  1.0000
  H   H13       1.0  0.84060  0.79753  0.48626  1.0000
  H   H14       1.0  0.04312  0.20253  0.01375  1.0000
  H   H15       1.0  0.15940  0.20248  0.51375  1.0000
  H   H16       1.0  0.95688  0.79747  0.98626  1.0000
  H   H17       1.0  0.03781  0.72897  0.44058  1.0000
  H   H18       1.0  0.30889  0.27119  0.05942  1.0000
  H   H19       1.0  0.96219  0.27102  0.55943  1.0000
  H   H20       1.0  0.69111  0.72881  0.94058  1.0000
  C   C1        1.0  0.38492  0.99131  0.97849  1.0000
  C   C2        1.0  0.39364  0.00871  0.52153  1.0000
  C   C3        1.0  0.61508  0.00869  0.02151  1.0000
  C   C4        1.0  0.60637  0.99128  0.47846  1.0000
  C   C5        1.0  0.70829  0.55214  0.26254  1.0000
  C   C6        1.0  0.15624  0.44802  0.23747  1.0000
  C   C7        1.0  0.29171  0.44786  0.73746  1.0000
  C   C8        1.0  0.84376  0.55198  0.76253  1.0000
  C   C9        1.0  0.63763  0.39633  0.38989  1.0000
  C   C10       1.0  0.24094  0.60372  0.11003  1.0000
  C   C11       1.0  0.36237  0.60368  0.61011  1.0000
  C   C12       1.0  0.75906  0.39628  0.88997  1.0000
  N   N1        1.0  0.53740  0.29469  0.28624  1.0000
  N   N2        1.0  0.24241  0.70539  0.21368  1.0000
  N   N3        1.0  0.46260  0.70532  0.71376  1.0000
  N   N4        1.0  0.75759  0.29460  0.78632  1.0000
  N   N5        1.0  0.58272  0.39230  0.20471  1.0000
  N   N6        1.0  0.19043  0.60787  0.29527  1.0000
  N   N7        1.0  0.41728  0.60770  0.79530  1.0000
  N   N8        1.0  0.80957  0.39213  0.70473  1.0000
  N   N9        1.0  0.74560  0.55955  0.37923  1.0000
  N   N10       1.0  0.18593  0.44054  0.12074  1.0000
  N   N11       1.0  0.25440  0.44045  0.62077  1.0000
  N   N12       1.0  0.81407  0.55946  0.87926  1.0000
  N   N13       1.0  0.88688  0.69432  0.47051  1.0000
  N   N14       1.0  0.19255  0.30577  0.02948  1.0000
  N   N15       1.0  0.11312  0.30568  0.52949  1.0000
  N   N16       1.0  0.80745  0.69422  0.97052  1.0000
  O   O1        1.0  0.23821  0.96060  0.04869  1.0000
  O   O2        1.0  0.27756  0.03932  0.45133  1.0000
  O   O3        1.0  0.76179  0.03940  0.95130  1.0000
  O   O4        1.0  0.72246  0.96068  0.54867  1.0000
  O   O5        1.0  0.64098  0.99022  0.12307  1.0000
  O   O6        1.0  0.65063  0.00964  0.37686  1.0000
  O   O7        1.0  0.35902  0.00978  0.87692  1.0000
  O   O8        1.0  0.34938  0.99035  0.62314  1.0000
  O   O9        1.0  0.98489  0.00016  0.25003  1.0000
  O   O10       1.0  0.01511  0.99984  0.74997  1.0000
