data_image0
_chemical_formula_structural       CuH8C6N8O4
_chemical_formula_sum              "Cu1 H8 C6 N8 O4"
_cell_length_a       5.60112
_cell_length_b       7.63099
_cell_length_c       7.49881
_cell_angle_alpha    64.093
_cell_angle_beta     71.4748
_cell_angle_gamma    83.8768

_space_group_name_H-M_alt    "P 1"
_space_group_IT_number       1

loop_
  _space_group_symop_operation_xyz
  'x, y, z'

loop_
  _atom_site_type_symbol
  _atom_site_label
  _atom_site_symmetry_multiplicity
  _atom_site_fract_x
  _atom_site_fract_y
  _atom_site_fract_z
  _atom_site_occupancy
  Cu  Cu1       1.0  0.00001  0.99999  0.00001  1.0000
  H   H1        1.0  0.56310  0.42796  0.27415  1.0000
  H   H2        1.0  0.43688  0.57205  0.72587  1.0000
  H   H3        1.0  0.80863  0.20850  0.58856  1.0000
  H   H4        1.0  0.19135  0.79151  0.41143  1.0000
  H   H5        1.0  0.18692  0.57343  0.10121  1.0000
  H   H6        1.0  0.81306  0.42656  0.89879  1.0000
  H   H7        1.0  0.14662  0.35326  0.11065  1.0000
  H   H8        1.0  0.85338  0.64673  0.88936  1.0000
  C   C1        1.0  0.53447  0.90727  0.97910  1.0000
  C   C2        1.0  0.46552  0.09272  0.02089  1.0000
  C   C3        1.0  0.39577  0.34835  0.39660  1.0000
  C   C4        1.0  0.60426  0.65167  0.60339  1.0000
  C   C5        1.0  0.00766  0.23452  0.55895  1.0000
  C   C6        1.0  0.99237  0.76548  0.44106  1.0000
  N   N1        1.0  0.13723  0.16745  0.69426  1.0000
  N   N2        1.0  0.86275  0.83254  0.30573  1.0000
  N   N3        1.0  0.38177  0.23985  0.59347  1.0000
  N   N4        1.0  0.61821  0.76015  0.40653  1.0000
  N   N5        1.0  0.16465  0.34902  0.36946  1.0000
  N   N6        1.0  0.83532  0.65098  0.63054  1.0000
  N   N7        1.0  0.09010  0.44087  0.18895  1.0000
  N   N8        1.0  0.90990  0.55913  0.81106  1.0000
  O   O1        1.0  0.76644  0.86310  0.94394  1.0000
  O   O2        1.0  0.23359  0.13689  0.05607  1.0000
  O   O3        1.0  0.63617  0.18650  0.02063  1.0000
  O   O4        1.0  0.36388  0.81352  0.97934  1.0000
