data_image0
_chemical_formula_structural       NiH8C6N8O4
_chemical_formula_sum              "Ni1 H8 C6 N8 O4"
_cell_length_a       5.41161
_cell_length_b       7.72859
_cell_length_c       8.04496
_cell_angle_alpha    121.621
_cell_angle_beta     101.341
_cell_angle_gamma    95.6985

_space_group_name_H-M_alt    "P 1"
_space_group_IT_number       1

loop_
  _space_group_symop_operation_xyz
  'x, y, z'

loop_
  _atom_site_type_symbol
  _atom_site_label
  _atom_site_symmetry_multiplicity
  _atom_site_fract_x
  _atom_site_fract_y
  _atom_site_fract_z
  _atom_site_occupancy
  Ni  Ni1       1.0  1.00000  0.00000  0.00001  1.0000
  H   H1        1.0  0.58175  0.30830  0.72535  1.0000
  H   H2        1.0  0.41830  0.69172  0.27466  1.0000
  H   H3        1.0  0.79544  0.19727  0.41096  1.0000
  H   H4        1.0  0.20459  0.80273  0.58905  1.0000
  H   H5        1.0  0.17590  0.31840  0.89252  1.0000
  H   H6        1.0  0.82415  0.68161  0.10749  1.0000
  H   H7        1.0  0.15627  0.53226  0.88679  1.0000
  H   H8        1.0  0.84376  0.46776  0.11321  1.0000
  C   C1        1.0  0.47945  0.89092  0.98310  1.0000
  C   C2        1.0  0.52052  0.10909  0.01690  1.0000
  C   C3        1.0  0.40646  0.26152  0.60391  1.0000
  C   C4        1.0  0.59353  0.73849  0.39609  1.0000
  C   C5        1.0  0.00277  0.20465  0.44127  1.0000
  C   C6        1.0  0.99723  0.79534  0.55872  1.0000
  N   N1        1.0  0.13704  0.13827  0.30763  1.0000
  N   N2        1.0  0.86292  0.86171  0.69234  1.0000
  N   N3        1.0  0.39201  0.17272  0.40933  1.0000
  N   N4        1.0  0.60793  0.82728  0.59066  1.0000
  N   N5        1.0  0.16598  0.28359  0.62976  1.0000
  N   N6        1.0  0.83401  0.71641  0.37022  1.0000
  N   N7        1.0  0.08847  0.37173  0.80820  1.0000
  N   N8        1.0  0.91158  0.62826  0.19181  1.0000
  O   O1        1.0  0.25083  0.80312  0.95552  1.0000
  O   O2        1.0  0.74916  0.19684  0.04449  1.0000
  O   O3        1.0  0.32384  0.18536  0.01546  1.0000
  O   O4        1.0  0.67614  0.81463  0.98453  1.0000
