data_image0
_chemical_formula_structural       CoH8C6N8O4
_chemical_formula_sum              "Co1 H8 C6 N8 O4"
_cell_length_a       5.42152
_cell_length_b       7.77487
_cell_length_c       7.7681
_cell_angle_alpha    120.095
_cell_angle_beta     101.261
_cell_angle_gamma    96.8771

_space_group_name_H-M_alt    "P 1"
_space_group_IT_number       1

loop_
  _space_group_symop_operation_xyz
  'x, y, z'

loop_
  _atom_site_type_symbol
  _atom_site_label
  _atom_site_symmetry_multiplicity
  _atom_site_fract_x
  _atom_site_fract_y
  _atom_site_fract_z
  _atom_site_occupancy
  Co  Co1       1.0  0.00000  0.00000  1.00000  1.0000
  H   H1        1.0  0.57478  0.29765  0.72444  1.0000
  H   H2        1.0  0.42521  0.70234  0.27556  1.0000
  H   H3        1.0  0.79033  0.19405  0.40193  1.0000
  H   H4        1.0  0.20968  0.80596  0.59807  1.0000
  H   H5        1.0  0.16633  0.31578  0.89721  1.0000
  H   H6        1.0  0.83368  0.68422  0.10280  1.0000
  H   H7        1.0  0.15928  0.52603  0.88383  1.0000
  H   H8        1.0  0.84072  0.47398  0.11617  1.0000
  C   C1        1.0  0.48760  0.89293  0.98406  1.0000
  C   C2        1.0  0.51241  0.10707  0.01594  1.0000
  C   C3        1.0  0.39965  0.25263  0.59984  1.0000
  C   C4        1.0  0.60037  0.74739  0.40018  1.0000
  C   C5        1.0  0.99629  0.19854  0.43240  1.0000
  C   C6        1.0  0.00367  0.80147  0.56760  1.0000
  N   N1        1.0  0.12925  0.12834  0.29543  1.0000
  N   N2        1.0  0.87075  0.87166  0.70456  1.0000
  N   N3        1.0  0.38385  0.16155  0.40032  1.0000
  N   N4        1.0  0.61615  0.83844  0.59967  1.0000
  N   N5        1.0  0.16087  0.27765  0.62561  1.0000
  N   N6        1.0  0.83914  0.72235  0.37441  1.0000
  N   N7        1.0  0.08467  0.36887  0.80779  1.0000
  N   N8        1.0  0.91533  0.63114  0.19221  1.0000
  O   O1        1.0  0.26666  0.79245  0.95412  1.0000
  O   O2        1.0  0.73333  0.20754  0.04588  1.0000
  O   O3        1.0  0.30378  0.16834  0.00960  1.0000
  O   O4        1.0  0.69620  0.83166  0.99039  1.0000
