data_image0
_chemical_formula_structural       ZnH8C6N8O4
_chemical_formula_sum              "Zn1 H8 C6 N8 O4"
_cell_length_a       5.50939
_cell_length_b       7.75952
_cell_length_c       8.13067
_cell_angle_alpha    121.781
_cell_angle_beta     101.423
_cell_angle_gamma    96.2909

_space_group_name_H-M_alt    "P 1"
_space_group_IT_number       1

loop_
  _space_group_symop_operation_xyz
  'x, y, z'

loop_
  _atom_site_type_symbol
  _atom_site_label
  _atom_site_symmetry_multiplicity
  _atom_site_fract_x
  _atom_site_fract_y
  _atom_site_fract_z
  _atom_site_occupancy
  Zn  Zn1       1.0  0.00001  0.00001  1.00000  1.0000
  H   H1        1.0  0.57869  0.30228  0.73184  1.0000
  H   H2        1.0  0.42131  0.69772  0.26815  1.0000
  H   H3        1.0  0.80919  0.20427  0.42041  1.0000
  H   H4        1.0  0.19081  0.79572  0.57960  1.0000
  H   H5        1.0  0.18682  0.32149  0.89864  1.0000
  H   H6        1.0  0.81318  0.67852  0.10137  1.0000
  H   H7        1.0  0.15990  0.53226  0.89069  1.0000
  H   H8        1.0  0.84010  0.46773  0.10930  1.0000
  C   C1        1.0  0.47752  0.88944  0.98210  1.0000
  C   C2        1.0  0.52247  0.11057  0.01791  1.0000
  C   C3        1.0  0.40788  0.26003  0.61144  1.0000
  C   C4        1.0  0.59213  0.73996  0.38854  1.0000
  C   C5        1.0  0.01246  0.20944  0.45046  1.0000
  C   C6        1.0  0.98754  0.79055  0.54953  1.0000
  N   N1        1.0  0.14358  0.14350  0.31816  1.0000
  N   N2        1.0  0.85641  0.85650  0.68185  1.0000
  N   N3        1.0  0.39379  0.17387  0.41893  1.0000
  N   N4        1.0  0.60620  0.82612  0.58108  1.0000
  N   N5        1.0  0.17224  0.28427  0.63705  1.0000
  N   N6        1.0  0.82776  0.71571  0.36294  1.0000
  N   N7        1.0  0.09636  0.37108  0.81360  1.0000
  N   N8        1.0  0.90364  0.62893  0.18641  1.0000
  O   O1        1.0  0.25187  0.80084  0.95368  1.0000
  O   O2        1.0  0.74815  0.19916  0.04634  1.0000
  O   O3        1.0  0.33108  0.18694  0.01679  1.0000
  O   O4        1.0  0.66893  0.81307  0.98322  1.0000
