data_image0
_chemical_formula_structural       NaMo2H22C14N3O15
_chemical_formula_sum              "Na1 Mo2 H22 C14 N3 O15"
_cell_length_a       7.32368
_cell_length_b       7.72498
_cell_length_c       11.08
_cell_angle_alpha    71.4445
_cell_angle_beta     75.4473
_cell_angle_gamma    82.8741

_space_group_name_H-M_alt    "P 1"
_space_group_IT_number       1

loop_
  _space_group_symop_operation_xyz
  'x, y, z'

loop_
  _atom_site_type_symbol
  _atom_site_label
  _atom_site_symmetry_multiplicity
  _atom_site_fract_x
  _atom_site_fract_y
  _atom_site_fract_z
  _atom_site_occupancy
  Na  Na1       1.0  0.02704  0.98175  0.12713  1.0000
  Mo  Mo1       1.0  0.90561  0.60355  0.62414  1.0000
  Mo  Mo2       1.0  0.82457  0.54580  0.43059  1.0000
  H   H1        1.0  0.77013  0.41263  0.96834  1.0000
  H   H2        1.0  0.75683  0.18300  0.97041  1.0000
  H   H3        1.0  0.44727  0.43301  0.94115  1.0000
  H   H4        1.0  0.43560  0.53195  0.77508  1.0000
  H   H5        1.0  0.57068  0.13206  0.86475  1.0000
  H   H6        1.0  0.78086  0.15160  0.74319  1.0000
  H   H7        1.0  0.44698  0.12887  0.70424  1.0000
  H   H8        1.0  0.41335  0.36370  0.68512  1.0000
  H   H9        1.0  0.64106  0.01774  0.52441  1.0000
  H   H10       1.0  0.82645  0.08364  0.57473  1.0000
  H   H11       1.0  0.33753  0.25165  0.51909  1.0000
  H   H12       1.0  0.51168  0.28505  0.37322  1.0000
  H   H13       1.0  0.28131  0.55571  0.37399  1.0000
  H   H14       1.0  0.35117  0.57785  0.50992  1.0000
  H   H15       1.0  0.64330  0.91681  0.30356  1.0000
  H   H16       1.0  0.46631  0.83198  0.44434  1.0000
  H   H17       1.0  0.64397  0.47884  0.21367  1.0000
  H   H18       1.0  0.46955  0.65442  0.16535  1.0000
  H   H19       1.0  0.97732  0.73696  0.96817  1.0000
  H   H20       1.0  0.20567  0.16379  0.26575  1.0000
  H   H21       1.0  0.27008  0.81199  0.90535  1.0000
  H   H22       1.0  0.12687  0.98545  0.88785  1.0000
  C   C1        1.0  0.01324  0.31986  0.85771  1.0000
  C   C2        1.0  0.80025  0.31968  0.90752  1.0000
  C   C3        1.0  0.59452  0.68417  0.83885  1.0000
  C   C4        1.0  0.53002  0.50159  0.84282  1.0000
  C   C5        1.0  0.64699  0.22485  0.77258  1.0000
  C   C6        1.0  0.52298  0.25573  0.67527  1.0000
  C   C7        1.0  0.72943  0.13183  0.50837  1.0000
  C   C8        1.0  0.85056  0.18556  0.37045  1.0000
  C   C9        1.0  0.46098  0.33196  0.45996  1.0000
  C   C10       1.0  0.39995  0.53228  0.42255  1.0000
  C   C11       1.0  0.51463  0.83947  0.34089  1.0000
  C   C12       1.0  0.36662  0.94814  0.27049  1.0000
  C   C13       1.0  0.59880  0.62202  0.20342  1.0000
  C   C14       1.0  0.75021  0.73931  0.10235  1.0000
  N   N1        1.0  0.69613  0.38791  0.80126  1.0000
  N   N2        1.0  0.61474  0.29385  0.53327  1.0000
  N   N3        1.0  0.55955  0.64806  0.33609  1.0000
  O   O1        1.0  0.67687  0.66175  0.55734  1.0000
  O   O2        1.0  0.97839  0.40168  0.54869  1.0000
  O   O3        1.0  0.95328  0.70008  0.29940  1.0000
  O   O4        1.0  0.06050  0.77345  0.55081  1.0000
  O   O5        1.0  0.07745  0.44697  0.75216  1.0000
  O   O6        1.0  0.11726  0.20542  0.92226  1.0000
  O   O7        1.0  0.75724  0.73349  0.76391  1.0000
  O   O8        1.0  0.49220  0.77807  0.90564  1.0000
  O   O9        1.0  0.89388  0.07673  0.30462  1.0000
  O   O10       1.0  0.90846  0.35082  0.32724  1.0000
  O   O11       1.0  0.75614  0.90446  0.08763  1.0000
  O   O12       1.0  0.87108  0.64933  0.03123  1.0000
  O   O13       1.0  0.31663  0.10579  0.30122  1.0000
  O   O14       1.0  0.30020  0.90494  0.19394  1.0000
  O   O15       1.0  0.13838  0.85474  0.89406  1.0000
