data_image0
_chemical_formula_structural       Li2H8C6S2O10
_chemical_formula_sum              "Li2 H8 C6 S2 O10"
_cell_length_a       4.72902
_cell_length_b       7.03491
_cell_length_c       8.44256
_cell_angle_alpha    91.6908
_cell_angle_beta     94.322
_cell_angle_gamma    101.001

_space_group_name_H-M_alt    "P 1"
_space_group_IT_number       1

loop_
  _space_group_symop_operation_xyz
  'x, y, z'

loop_
  _atom_site_type_symbol
  _atom_site_label
  _atom_site_symmetry_multiplicity
  _atom_site_fract_x
  _atom_site_fract_y
  _atom_site_fract_z
  _atom_site_occupancy
  Li  Li1       1.0  0.18150  0.34958  0.97356  1.0000
  Li  Li2       1.0  0.81850  0.65041  0.02644  1.0000
  H   H1        1.0  0.77284  0.02081  0.88408  1.0000
  H   H2        1.0  0.22715  0.97919  0.11592  1.0000
  H   H3        1.0  0.02077  0.08029  0.77811  1.0000
  H   H4        1.0  0.97923  0.91971  0.22189  1.0000
  H   H5        1.0  0.65164  0.26959  0.81388  1.0000
  H   H6        1.0  0.34836  0.73041  0.18612  1.0000
  H   H7        1.0  0.32989  0.80861  0.45399  1.0000
  H   H8        1.0  0.67011  0.19140  0.54601  1.0000
  C   C1        1.0  0.50779  0.42709  0.65388  1.0000
  C   C2        1.0  0.49222  0.57291  0.34612  1.0000
  C   C3        1.0  0.41137  0.60051  0.62446  1.0000
  C   C4        1.0  0.58863  0.39949  0.37554  1.0000
  C   C5        1.0  0.40338  0.67292  0.47267  1.0000
  C   C6        1.0  0.59663  0.32708  0.52733  1.0000
  S   S1        1.0  0.30913  0.73454  0.78397  1.0000
  S   S2        1.0  0.69087  0.26546  0.21603  1.0000
  O   O1        1.0  0.09206  0.59711  0.86200  1.0000
  O   O2        1.0  0.90794  0.40289  0.13800  1.0000
  O   O3        1.0  0.90091  0.13923  0.84924  1.0000
  O   O4        1.0  0.09909  0.86077  0.15076  1.0000
  O   O5        1.0  0.57145  0.79781  0.89498  1.0000
  O   O6        1.0  0.42855  0.20219  0.10502  1.0000
  O   O7        1.0  0.20310  0.89674  0.71330  1.0000
  O   O8        1.0  0.79690  0.10327  0.28670  1.0000
  O   O9        1.0  0.51061  0.36062  0.80406  1.0000
  O   O10       1.0  0.48939  0.63938  0.19594  1.0000
