data_image0
_chemical_formula_structural       Li2H12C6S2O12
_chemical_formula_sum              "Li2 H12 C6 S2 O12"
_cell_length_a       6.11779
_cell_length_b       7.16552
_cell_length_c       8.21724
_cell_angle_alpha    73.8448
_cell_angle_beta     69.7856
_cell_angle_gamma    67.1203

_space_group_name_H-M_alt    "P 1"
_space_group_IT_number       1

loop_
  _space_group_symop_operation_xyz
  'x, y, z'

loop_
  _atom_site_type_symbol
  _atom_site_label
  _atom_site_symmetry_multiplicity
  _atom_site_fract_x
  _atom_site_fract_y
  _atom_site_fract_z
  _atom_site_occupancy
  Li  Li1       1.0  0.80329  0.18740  0.89506  1.0000
  Li  Li2       1.0  0.19671  0.81260  0.10494  1.0000
  H   H1        1.0  0.82932  0.39522  0.57659  1.0000
  H   H2        1.0  0.17068  0.60478  0.42341  1.0000
  H   H3        1.0  0.91333  0.49145  0.68461  1.0000
  H   H4        1.0  0.08668  0.50855  0.31539  1.0000
  H   H5        1.0  0.35322  0.41240  0.94162  1.0000
  H   H6        1.0  0.64678  0.58759  0.05838  1.0000
  H   H7        1.0  0.34165  0.20683  0.07769  1.0000
  H   H8        1.0  0.65835  0.79317  0.92231  1.0000
  H   H9        1.0  0.70579  0.82421  0.12984  1.0000
  H   H10       1.0  0.29420  0.17579  0.87017  1.0000
  H   H11       1.0  0.53153  0.28412  0.59908  1.0000
  H   H12       1.0  0.46846  0.71588  0.40092  1.0000
  C   C1        1.0  0.65878  0.10603  0.39210  1.0000
  C   C2        1.0  0.34122  0.89397  0.60790  1.0000
  C   C3        1.0  0.51909  0.15870  0.55676  1.0000
  C   C4        1.0  0.48091  0.84130  0.44324  1.0000
  C   C5        1.0  0.64027  0.94846  0.33244  1.0000
  C   C6        1.0  0.35973  0.05154  0.66756  1.0000
  S   S1        1.0  0.87038  0.23346  0.25343  1.0000
  S   S2        1.0  0.12962  0.76654  0.74657  1.0000
  O   O1        1.0  0.79546  0.33125  0.08827  1.0000
  O   O2        1.0  0.20454  0.66876  0.91172  1.0000
  O   O3        1.0  0.80442  0.41494  0.69607  1.0000
  O   O4        1.0  0.19559  0.58506  0.30393  1.0000
  O   O5        1.0  0.11331  0.07196  0.22089  1.0000
  O   O6        1.0  0.88669  0.92804  0.77911  1.0000
  O   O7        1.0  0.42778  0.25957  0.95855  1.0000
  O   O8        1.0  0.57222  0.74043  0.04145  1.0000
  O   O9        1.0  0.85735  0.38636  0.34736  1.0000
  O   O10       1.0  0.14265  0.61365  0.65264  1.0000
  O   O11       1.0  0.77692  0.90644  0.16825  1.0000
  O   O12       1.0  0.22308  0.09357  0.83175  1.0000
