data_image0
_chemical_formula_structural       Li4H12C12S4O18
_chemical_formula_sum              "Li4 H12 C12 S4 O18"
_cell_length_a       7.65474
_cell_length_b       8.52657
_cell_length_c       9.35398
_cell_angle_alpha    83.1455
_cell_angle_beta     67.7143
_cell_angle_gamma    76.277

_space_group_name_H-M_alt    "P 1"
_space_group_IT_number       1

loop_
  _space_group_symop_operation_xyz
  'x, y, z'

loop_
  _atom_site_type_symbol
  _atom_site_label
  _atom_site_symmetry_multiplicity
  _atom_site_fract_x
  _atom_site_fract_y
  _atom_site_fract_z
  _atom_site_occupancy
  Li  Li1       1.0  0.29797  0.86197  0.94368  1.0000
  Li  Li2       1.0  0.70203  0.13803  0.05632  1.0000
  Li  Li3       1.0  0.22556  0.53733  0.99155  1.0000
  Li  Li4       1.0  0.77443  0.46267  0.00845  1.0000
  H   H1        1.0  0.37661  0.72966  0.19926  1.0000
  H   H2        1.0  0.62339  0.27034  0.80074  1.0000
  H   H3        1.0  0.54084  0.81091  0.07464  1.0000
  H   H4        1.0  0.45916  0.18909  0.92537  1.0000
  H   H5        1.0  0.18975  0.81485  0.70959  1.0000
  H   H6        1.0  0.81025  0.18515  0.29042  1.0000
  H   H7        1.0  0.36606  0.98631  0.19496  1.0000
  H   H8        1.0  0.63394  0.01369  0.80504  1.0000
  H   H9        1.0  0.27803  0.88021  0.44996  1.0000
  H   H10       1.0  0.72198  0.11979  0.55004  1.0000
  H   H11       1.0  0.25207  0.42920  0.60053  1.0000
  H   H12       1.0  0.74793  0.57080  0.39947  1.0000
  C   C1        1.0  0.20858  0.18929  0.68094  1.0000
  C   C2        1.0  0.79142  0.81071  0.31906  1.0000
  C   C3        1.0  0.21644  0.03416  0.63766  1.0000
  C   C4        1.0  0.78357  0.96584  0.36234  1.0000
  C   C5        1.0  0.26884  0.00148  0.48270  1.0000
  C   C6        1.0  0.73117  0.99852  0.51731  1.0000
  C   C7        1.0  0.31715  0.12275  0.36855  1.0000
  C   C8        1.0  0.68286  0.87725  0.63145  1.0000
  C   C9        1.0  0.30958  0.27819  0.41257  1.0000
  C   C10       1.0  0.69042  0.72181  0.58743  1.0000
  C   C11       1.0  0.25613  0.31007  0.56730  1.0000
  C   C12       1.0  0.74387  0.68993  0.43269  1.0000
  S   S1        1.0  0.13658  0.23392  0.87708  1.0000
  S   S2        1.0  0.86341  0.76608  0.12292  1.0000
  S   S3        1.0  0.36973  0.42882  0.26605  1.0000
  S   S4        1.0  0.63027  0.57118  0.73395  1.0000
  O   O1        1.0  0.24663  0.10465  0.94767  1.0000
  O   O2        1.0  0.75336  0.89535  0.05233  1.0000
  O   O3        1.0  0.39967  0.81872  0.11916  1.0000
  O   O4        1.0  0.60033  0.18128  0.88084  1.0000
  O   O5        1.0  0.18231  0.39139  0.87567  1.0000
  O   O6        1.0  0.81769  0.60861  0.12432  1.0000
  O   O7        1.0  0.92735  0.24086  0.94914  1.0000
  O   O8        1.0  0.07264  0.75914  0.05086  1.0000
  O   O9        1.0  0.17399  0.91861  0.75215  1.0000
  O   O10       1.0  0.82601  0.08139  0.24784  1.0000
  O   O11       1.0  0.34868  0.57730  0.34166  1.0000
  O   O12       1.0  0.65131  0.42270  0.65834  1.0000
  O   O13       1.0  0.23870  0.44464  0.18229  1.0000
  O   O14       1.0  0.76130  0.55535  0.81771  1.0000
  O   O15       1.0  0.57353  0.36503  0.16642  1.0000
  O   O16       1.0  0.42647  0.63497  0.83357  1.0000
  O   O17       1.0  0.37499  0.09745  0.21733  1.0000
  O   O18       1.0  0.62502  0.90255  0.78266  1.0000
