data_image0
_chemical_formula_structural       V4Cd2H14C10N10O14
_chemical_formula_sum              "V4 Cd2 H14 C10 N10 O14"
_cell_length_a       7.5717
_cell_length_b       7.91506
_cell_length_c       10.1768
_cell_angle_alpha    98.2896
_cell_angle_beta     95.2867
_cell_angle_gamma    99.3971

_space_group_name_H-M_alt    "P 1"
_space_group_IT_number       1

loop_
  _space_group_symop_operation_xyz
  'x, y, z'

loop_
  _atom_site_type_symbol
  _atom_site_label
  _atom_site_symmetry_multiplicity
  _atom_site_fract_x
  _atom_site_fract_y
  _atom_site_fract_z
  _atom_site_occupancy
  V   V1        1.0  0.79464  0.58981  0.33034  1.0000
  V   V2        1.0  0.20536  0.41019  0.66966  1.0000
  V   V3        1.0  0.22631  0.63791  0.42256  1.0000
  V   V4        1.0  0.77369  0.36209  0.57745  1.0000
  Cd  Cd1       1.0  0.50000  0.50000  0.00000  1.0000
  Cd  Cd2       1.0  0.00000  0.00000  0.50000  1.0000
  H   H1        1.0  0.94358  0.61719  0.08471  1.0000
  H   H2        1.0  0.05642  0.38281  0.91529  1.0000
  H   H3        1.0  0.58444  0.88495  0.56926  1.0000
  H   H4        1.0  0.41556  0.11505  0.43074  1.0000
  H   H5        1.0  0.70944  0.23367  0.94965  1.0000
  H   H6        1.0  0.29056  0.76633  0.05035  1.0000
  H   H7        1.0  0.58777  0.24731  0.81516  1.0000
  H   H8        1.0  0.41223  0.75269  0.18484  1.0000
  H   H9        1.0  0.22803  0.04170  0.77017  1.0000
  H   H10       1.0  0.77197  0.95830  0.22983  1.0000
  H   H11       1.0  0.34235  0.97821  0.90573  1.0000
  H   H12       1.0  0.65765  0.02179  0.09427  1.0000
  H   H13       1.0  0.48305  0.69590  0.74863  1.0000
  H   H14       1.0  0.51696  0.30410  0.25136  1.0000
  C   C1        1.0  0.75799  0.75295  0.83071  1.0000
  C   C2        1.0  0.24201  0.24705  0.16930  1.0000
  C   C3        1.0  0.92941  0.68471  0.99927  1.0000
  C   C4        1.0  0.07059  0.31529  0.00073  1.0000
  C   C5        1.0  0.07696  0.86440  0.86401  1.0000
  C   C6        1.0  0.92304  0.13560  0.13598  1.0000
  C   C7        1.0  0.90734  0.84877  0.78686  1.0000
  C   C8        1.0  0.09267  0.15123  0.21314  1.0000
  C   C9        1.0  0.67181  0.85990  0.65216  1.0000
  C   C10       1.0  0.32819  0.14010  0.34784  1.0000
  N   N1        1.0  0.84948  0.91386  0.67406  1.0000
  N   N2        1.0  0.15052  0.08614  0.32594  1.0000
  N   N3        1.0  0.76234  0.66723  0.93619  1.0000
  N   N4        1.0  0.23766  0.33277  0.06381  1.0000
  N   N5        1.0  0.08068  0.77661  0.96992  1.0000
  N   N6        1.0  0.91932  0.22339  0.03007  1.0000
  N   N7        1.0  0.22913  0.95956  0.83996  1.0000
  N   N8        1.0  0.77088  0.04044  0.16004  1.0000
  N   N9        1.0  0.61097  0.76470  0.74529  1.0000
  N   N10       1.0  0.38903  0.23529  0.25471  1.0000
  O   O1        1.0  0.19651  0.81194  0.52542  1.0000
  O   O2        1.0  0.80348  0.18806  0.47458  1.0000
  O   O3        1.0  0.39052  0.69226  0.33325  1.0000
  O   O4        1.0  0.60948  0.30773  0.66675  1.0000
  O   O5        1.0  0.01862  0.55162  0.31355  1.0000
  O   O6        1.0  0.98138  0.44838  0.68645  1.0000
  O   O7        1.0  0.79997  0.80224  0.33644  1.0000
  O   O8        1.0  0.20003  0.19776  0.66356  1.0000
  O   O9        1.0  0.72325  0.52611  0.48039  1.0000
  O   O10       1.0  0.27675  0.47389  0.51961  1.0000
  O   O11       1.0  0.66173  0.47196  0.19650  1.0000
  O   O12       1.0  0.33827  0.52804  0.80351  1.0000
  O   O13       1.0  0.58154  0.23430  0.91128  1.0000
  O   O14       1.0  0.41846  0.76570  0.08872  1.0000
