data_image0
_chemical_formula_structural       Ba2H28C20N8O24
_chemical_formula_sum              "Ba2 H28 C20 N8 O24"
_cell_length_a       6.63181
_cell_length_b       9.56735
_cell_length_c       14.9998
_cell_angle_alpha    90.8249
_cell_angle_beta     90.0222
_cell_angle_gamma    110.224

_space_group_name_H-M_alt    "P 1"
_space_group_IT_number       1

loop_
  _space_group_symop_operation_xyz
  'x, y, z'

loop_
  _atom_site_type_symbol
  _atom_site_label
  _atom_site_symmetry_multiplicity
  _atom_site_fract_x
  _atom_site_fract_y
  _atom_site_fract_z
  _atom_site_occupancy
  Ba  Ba1       1.0  0.03505  0.99974  0.75028  1.0000
  Ba  Ba2       1.0  0.96495  0.00026  0.24972  1.0000
  H   H1        1.0  0.20899  0.55367  0.56965  1.0000
  H   H2        1.0  0.65397  0.44564  0.93052  1.0000
  H   H3        1.0  0.79102  0.44635  0.43035  1.0000
  H   H4        1.0  0.34604  0.55436  0.06948  1.0000
  H   H5        1.0  0.18514  0.83767  0.54904  1.0000
  H   H6        1.0  0.34678  0.16208  0.95067  1.0000
  H   H7        1.0  0.81487  0.16234  0.45097  1.0000
  H   H8        1.0  0.65321  0.83790  0.04933  1.0000
  H   H9        1.0  0.00650  0.87263  0.49460  1.0000
  H   H10       1.0  0.13332  0.12732  0.00500  1.0000
  H   H11       1.0  0.99350  0.12737  0.50540  1.0000
  H   H12       1.0  0.86667  0.87267  0.99501  1.0000
  H   H13       1.0  0.70865  0.98632  0.92457  1.0000
  H   H14       1.0  0.72237  0.01399  0.57591  1.0000
  H   H15       1.0  0.29135  0.01368  0.07543  1.0000
  H   H16       1.0  0.27763  0.98602  0.42409  1.0000
  H   H17       1.0  0.59863  0.04271  0.84358  1.0000
  H   H18       1.0  0.55621  0.95721  0.65688  1.0000
  H   H19       1.0  0.40136  0.95728  0.15642  1.0000
  H   H20       1.0  0.44379  0.04280  0.34312  1.0000
  H   H21       1.0  0.24918  0.67218  0.86144  1.0000
  H   H22       1.0  0.57676  0.32731  0.63870  1.0000
  H   H23       1.0  0.75082  0.32782  0.13856  1.0000
  H   H24       1.0  0.42323  0.67266  0.36129  1.0000
  H   H25       1.0  0.14138  0.40590  0.92409  1.0000
  H   H26       1.0  0.73566  0.59356  0.57605  1.0000
  H   H27       1.0  0.85863  0.59409  0.07590  1.0000
  H   H28       1.0  0.26432  0.40642  0.42394  1.0000
  C   C1        1.0  0.15561  0.43337  0.85389  1.0000
  C   C2        1.0  0.72232  0.56599  0.64625  1.0000
  C   C3        1.0  0.84440  0.56663  0.14611  1.0000
  C   C4        1.0  0.27768  0.43400  0.35374  1.0000
  C   C5        1.0  0.22130  0.57343  0.73328  1.0000
  C   C6        1.0  0.64727  0.42603  0.76689  1.0000
  C   C7        1.0  0.77872  0.42659  0.26672  1.0000
  C   C8        1.0  0.35274  0.57395  0.23311  1.0000
  C   C9        1.0  0.16484  0.42265  0.71015  1.0000
  C   C10       1.0  0.74182  0.57674  0.79001  1.0000
  C   C11       1.0  0.83517  0.57736  0.28985  1.0000
  C   C12       1.0  0.25819  0.42325  0.20998  1.0000
  C   C13       1.0  0.26987  0.71115  0.68131  1.0000
  C   C14       1.0  0.55801  0.28837  0.81884  1.0000
  C   C15       1.0  0.73015  0.28887  0.31870  1.0000
  C   C16       1.0  0.44199  0.71162  0.18116  1.0000
  C   C17       1.0  0.15952  0.35244  0.62165  1.0000
  C   C18       1.0  0.80610  0.64684  0.87857  1.0000
  C   C19       1.0  0.84047  0.64758  0.37835  1.0000
  C   C20       1.0  0.19390  0.35316  0.12142  1.0000
  N   N1        1.0  0.12475  0.33759  0.78589  1.0000
  N   N2        1.0  0.78725  0.66176  0.71426  1.0000
  N   N3        1.0  0.87525  0.66241  0.21411  1.0000
  N   N4        1.0  0.21276  0.33823  0.28573  1.0000
  N   N5        1.0  0.21653  0.57620  0.82478  1.0000
  N   N6        1.0  0.63994  0.42324  0.67538  1.0000
  N   N7        1.0  0.78348  0.42380  0.17522  1.0000
  N   N8        1.0  0.36006  0.57674  0.32461  1.0000
  O   O1        1.0  0.30906  0.83328  0.72224  1.0000
  O   O2        1.0  0.47467  0.16629  0.77794  1.0000
  O   O3        1.0  0.69095  0.16673  0.27778  1.0000
  O   O4        1.0  0.52532  0.83370  0.22206  1.0000
  O   O5        1.0  0.26667  0.69697  0.59544  1.0000
  O   O6        1.0  0.56920  0.30246  0.90471  1.0000
  O   O7        1.0  0.73335  0.30305  0.40457  1.0000
  O   O8        1.0  0.43078  0.69753  0.09529  1.0000
  O   O9        1.0  0.17371  0.43572  0.55137  1.0000
  O   O10       1.0  0.73605  0.56367  0.94880  1.0000
  O   O11       1.0  0.82630  0.56430  0.44863  1.0000
  O   O12       1.0  0.26396  0.43633  0.05119  1.0000
  O   O13       1.0  0.14657  0.21991  0.61403  1.0000
  O   O14       1.0  0.92594  0.77920  0.88633  1.0000
  O   O15       1.0  0.85341  0.78011  0.38596  1.0000
  O   O16       1.0  0.07404  0.22079  0.11367  1.0000
  O   O17       1.0  0.13527  0.91983  0.53185  1.0000
  O   O18       1.0  0.21462  0.08002  0.96764  1.0000
  O   O19       1.0  0.86472  0.08018  0.46815  1.0000
  O   O20       1.0  0.78537  0.91997  0.03237  1.0000
  O   O21       1.0  0.70267  0.99472  0.85907  1.0000
  O   O22       1.0  0.70806  0.00543  0.64142  1.0000
  O   O23       1.0  0.29735  0.00529  0.14094  1.0000
  O   O24       1.0  0.29195  0.99457  0.35858  1.0000
