data_image0
_chemical_formula_structural       Pr4H24C28O36
_chemical_formula_sum              "Pr4 H24 C28 O36"
_cell_length_a       7.63876
_cell_length_b       9.49583
_cell_length_c       14.7994
_cell_angle_alpha    90.0002
_cell_angle_beta     103.575
_cell_angle_gamma    89.9995

_space_group_name_H-M_alt    "P 1"
_space_group_IT_number       1

loop_
  _space_group_symop_operation_xyz
  'x, y, z'

loop_
  _atom_site_type_symbol
  _atom_site_label
  _atom_site_symmetry_multiplicity
  _atom_site_fract_x
  _atom_site_fract_y
  _atom_site_fract_z
  _atom_site_occupancy
  Pr  Pr1       1.0  0.61708  0.44735  0.35276  1.0000
  Pr  Pr2       1.0  0.88292  0.94736  0.14724  1.0000
  Pr  Pr3       1.0  0.38293  0.55264  0.64724  1.0000
  Pr  Pr4       1.0  0.11707  0.05265  0.85276  1.0000
  H   H1        1.0  0.71730  0.96427  0.63377  1.0000
  H   H2        1.0  0.78271  0.46429  0.86623  1.0000
  H   H3        1.0  0.28271  0.03571  0.36623  1.0000
  H   H4        1.0  0.21730  0.53573  0.13377  1.0000
  H   H5        1.0  0.83476  0.19259  0.55222  1.0000
  H   H6        1.0  0.66523  0.69261  0.94779  1.0000
  H   H7        1.0  0.16523  0.80740  0.44779  1.0000
  H   H8        1.0  0.33477  0.30741  0.05222  1.0000
  H   H9        1.0  0.19324  0.43957  0.28760  1.0000
  H   H10       1.0  0.30677  0.93957  0.21240  1.0000
  H   H11       1.0  0.80677  0.56042  0.71240  1.0000
  H   H12       1.0  0.69322  0.06044  0.78760  1.0000
  H   H13       1.0  0.25754  0.54829  0.36715  1.0000
  H   H14       1.0  0.24246  0.04829  0.13285  1.0000
  H   H15       1.0  0.74248  0.45170  0.63286  1.0000
  H   H16       1.0  0.75752  0.95172  0.86714  1.0000
  H   H17       1.0  0.52811  0.20868  0.19157  1.0000
  H   H18       1.0  0.97189  0.70868  0.30843  1.0000
  H   H19       1.0  0.47189  0.79132  0.80843  1.0000
  H   H20       1.0  0.02811  0.29131  0.69157  1.0000
  H   H21       1.0  0.37895  0.19213  0.24521  1.0000
  H   H22       1.0  0.12105  0.69212  0.25479  1.0000
  H   H23       1.0  0.62105  0.80788  0.75479  1.0000
  H   H24       1.0  0.87894  0.30787  0.74520  1.0000
  C   C1        1.0  0.59761  0.73472  0.49598  1.0000
  C   C2        1.0  0.90240  0.23473  0.00402  1.0000
  C   C3        1.0  0.40241  0.26527  0.50402  1.0000
  C   C4        1.0  0.09759  0.76528  0.99598  1.0000
  C   C5        1.0  0.68557  0.87208  0.49492  1.0000
  C   C6        1.0  0.81444  0.37210  0.00508  1.0000
  C   C7        1.0  0.31445  0.12790  0.50508  1.0000
  C   C8        1.0  0.18555  0.62792  0.99492  1.0000
  C   C9        1.0  0.72961  0.97431  0.56263  1.0000
  C   C10       1.0  0.77039  0.47434  0.93738  1.0000
  C   C11       1.0  0.27039  0.02566  0.43738  1.0000
  C   C12       1.0  0.22961  0.52568  0.06262  1.0000
  C   C13       1.0  0.79129  0.09201  0.52049  1.0000
  C   C14       1.0  0.70871  0.59203  0.97951  1.0000
  C   C15       1.0  0.20872  0.90797  0.47951  1.0000
  C   C16       1.0  0.29129  0.40799  0.02049  1.0000
  C   C17       1.0  0.78446  0.05448  0.42971  1.0000
  C   C18       1.0  0.71554  0.55450  0.07029  1.0000
  C   C19       1.0  0.21555  0.94551  0.57029  1.0000
  C   C20       1.0  0.28445  0.44551  0.92971  1.0000
  C   C21       1.0  0.83562  0.13137  0.35326  1.0000
  C   C22       1.0  0.66438  0.63139  0.14674  1.0000
  C   C23       1.0  0.16439  0.86862  0.64674  1.0000
  C   C24       1.0  0.33562  0.36863  0.85326  1.0000
  C   C25       1.0  0.96547  0.46232  0.53905  1.0000
  C   C26       1.0  0.53454  0.96233  0.96095  1.0000
  C   C27       1.0  0.03455  0.53767  0.46095  1.0000
  C   C28       1.0  0.46546  0.03768  0.03905  1.0000
  O   O1        1.0  0.79770  0.43893  0.52402  1.0000
  O   O2        1.0  0.70231  0.93894  0.97598  1.0000
  O   O3        1.0  0.20231  0.56106  0.47598  1.0000
  O   O4        1.0  0.29769  0.06107  0.02402  1.0000
  O   O5        1.0  0.55500  0.66378  0.42128  1.0000
  O   O6        1.0  0.94500  0.16379  0.07872  1.0000
  O   O7        1.0  0.44500  0.33621  0.57871  1.0000
  O   O8        1.0  0.05499  0.83622  0.92128  1.0000
  O   O9        1.0  0.27031  0.52229  0.30330  1.0000
  O   O10       1.0  0.22969  0.02229  0.19670  1.0000
  O   O11       1.0  0.72970  0.47770  0.69670  1.0000
  O   O12       1.0  0.77030  0.97772  0.80329  1.0000
  O   O13       1.0  0.56743  0.69816  0.57381  1.0000
  O   O14       1.0  0.93257  0.19818  0.92619  1.0000
  O   O15       1.0  0.43258  0.30182  0.42619  1.0000
  O   O16       1.0  0.06742  0.80184  0.07381  1.0000
  O   O17       1.0  0.46896  0.26004  0.23450  1.0000
  O   O18       1.0  0.03104  0.76003  0.26549  1.0000
  O   O19       1.0  0.53104  0.73996  0.76550  1.0000
  O   O20       1.0  0.96895  0.23996  0.73450  1.0000
  O   O21       1.0  0.72127  0.91932  0.41345  1.0000
  O   O22       1.0  0.77874  0.41934  0.08655  1.0000
  O   O23       1.0  0.27874  0.08066  0.58655  1.0000
  O   O24       1.0  0.22125  0.58067  0.91344  1.0000
  O   O25       1.0  0.84512  0.26518  0.35971  1.0000
  O   O26       1.0  0.65487  0.76520  0.14030  1.0000
  O   O27       1.0  0.15489  0.73481  0.64030  1.0000
  O   O28       1.0  0.34511  0.23481  0.85971  1.0000
  O   O29       1.0  0.86785  0.06046  0.28640  1.0000
  O   O30       1.0  0.63215  0.56048  0.21360  1.0000
  O   O31       1.0  0.13215  0.93953  0.71360  1.0000
  O   O32       1.0  0.36786  0.43953  0.78641  1.0000
  O   O33       1.0  0.08096  0.42987  0.61247  1.0000
  O   O34       1.0  0.41904  0.92988  0.88752  1.0000
  O   O35       1.0  0.91905  0.57012  0.38752  1.0000
  O   O36       1.0  0.58095  0.07013  0.11248  1.0000
