data_image0
_chemical_formula_structural       Sm4H24C28O36
_chemical_formula_sum              "Sm4 H24 C28 O36"
_cell_length_a       9.95281
_cell_length_b       9.94954
_cell_length_c       13.1511
_cell_angle_alpha    94.8849
_cell_angle_beta     109.323
_cell_angle_gamma    116.747

_space_group_name_H-M_alt    "P 1"
_space_group_IT_number       1

loop_
  _space_group_symop_operation_xyz
  'x, y, z'

loop_
  _atom_site_type_symbol
  _atom_site_label
  _atom_site_symmetry_multiplicity
  _atom_site_fract_x
  _atom_site_fract_y
  _atom_site_fract_z
  _atom_site_occupancy
  Sm  Sm1       1.0  0.46214  0.73734  0.00623  1.0000
  Sm  Sm2       1.0  0.23123  0.45612  0.49390  1.0000
  Sm  Sm3       1.0  0.53784  0.26265  0.99377  1.0000
  Sm  Sm4       1.0  0.76878  0.54388  0.50609  1.0000
  H   H1        1.0  0.69677  0.94630  0.23999  1.0000
  H   H2        1.0  0.20683  0.45715  0.26017  1.0000
  H   H3        1.0  0.30323  0.05369  0.76000  1.0000
  H   H4        1.0  0.79318  0.54285  0.73983  1.0000
  H   H5        1.0  0.63167  0.05088  0.18559  1.0000
  H   H6        1.0  0.36544  0.44594  0.31448  1.0000
  H   H7        1.0  0.36833  0.94912  0.81441  1.0000
  H   H8        1.0  0.63457  0.55406  0.68551  1.0000
  H   H9        1.0  0.78567  0.84466  0.85616  1.0000
  H   H10       1.0  0.48903  0.92962  0.64408  1.0000
  H   H11       1.0  0.21433  0.15535  0.14384  1.0000
  H   H12       1.0  0.51098  0.07038  0.35592  1.0000
  H   H13       1.0  0.04766  0.97756  0.79995  1.0000
  H   H14       1.0  0.67841  0.24794  0.70050  1.0000
  H   H15       1.0  0.95233  0.02244  0.20005  1.0000
  H   H16       1.0  0.32160  0.75206  0.29949  1.0000
  H   H17       1.0  0.22485  0.51500  0.07439  1.0000
  H   H18       1.0  0.94067  0.15035  0.42570  1.0000
  H   H19       1.0  0.77514  0.48499  0.92561  1.0000
  H   H20       1.0  0.05934  0.84965  0.57429  1.0000
  H   H21       1.0  0.38197  0.50487  0.13725  1.0000
  H   H22       1.0  0.86782  0.24469  0.36276  1.0000
  H   H23       1.0  0.61802  0.49513  0.86276  1.0000
  H   H24       1.0  0.13219  0.75531  0.63724  1.0000
  C   C1        1.0  0.74792  0.09310  0.97044  1.0000
  C   C2        1.0  0.62271  0.77741  0.52951  1.0000
  C   C3        1.0  0.25208  0.90691  0.02956  1.0000
  C   C4        1.0  0.37730  0.22258  0.47049  1.0000
  C   C5        1.0  0.07407  0.19797  0.87933  1.0000
  C   C6        1.0  0.81911  0.19483  0.62088  1.0000
  C   C7        1.0  0.92592  0.80202  0.12067  1.0000
  C   C8        1.0  0.18089  0.80517  0.37912  1.0000
  C   C9        1.0  0.86830  0.96836  0.87056  1.0000
  C   C10       1.0  0.59831  0.99783  0.62967  1.0000
  C   C11       1.0  0.13169  0.03164  0.12944  1.0000
  C   C12       1.0  0.40169  0.00217  0.37033  1.0000
  C   C13       1.0  0.22702  0.33288  0.88695  1.0000
  C   C14       1.0  0.94626  0.34019  0.61319  1.0000
  C   C15       1.0  0.77298  0.66712  0.11305  1.0000
  C   C16       1.0  0.05374  0.65981  0.38682  1.0000
  C   C17       1.0  0.00525  0.03791  0.84238  1.0000
  C   C18       1.0  0.69618  0.16303  0.65795  1.0000
  C   C19       1.0  0.99473  0.96208  0.15762  1.0000
  C   C20       1.0  0.30383  0.83697  0.34205  1.0000
  C   C21       1.0  0.34165  0.68457  0.73604  1.0000
  C   C22       1.0  0.44848  0.60591  0.76413  1.0000
  C   C23       1.0  0.65835  0.31543  0.26396  1.0000
  C   C24       1.0  0.55152  0.39410  0.23587  1.0000
  C   C25       1.0  0.86090  0.08934  0.92294  1.0000
  C   C26       1.0  0.66671  0.93800  0.57714  1.0000
  C   C27       1.0  0.13910  0.91067  0.07707  1.0000
  C   C28       1.0  0.33330  0.06200  0.42285  1.0000
  O   O1        1.0  0.65273  0.96686  0.98590  1.0000
  O   O2        1.0  0.48099  0.66691  0.51410  1.0000
  O   O3        1.0  0.34726  0.03315  0.01410  1.0000
  O   O4        1.0  0.51902  0.33309  0.48590  1.0000
  O   O5        1.0  0.75074  0.22168  0.99171  1.0000
  O   O6        1.0  0.72981  0.75879  0.50811  1.0000
  O   O7        1.0  0.24925  0.77832  0.00829  1.0000
  O   O8        1.0  0.27021  0.24121  0.49189  1.0000
  O   O9        1.0  0.33905  0.75869  0.81792  1.0000
  O   O10       1.0  0.44090  0.52164  0.68223  1.0000
  O   O11       1.0  0.66093  0.24130  0.18207  1.0000
  O   O12       1.0  0.55910  0.47837  0.31778  1.0000
  O   O13       1.0  0.33438  0.30309  0.87543  1.0000
  O   O14       1.0  0.92779  0.45901  0.62450  1.0000
  O   O15       1.0  0.66561  0.69691  0.12457  1.0000
  O   O16       1.0  0.07222  0.54099  0.37550  1.0000
  O   O17       1.0  0.98483  0.23043  0.92714  1.0000
  O   O18       1.0  0.80360  0.05775  0.57295  1.0000
  O   O19       1.0  0.01516  0.76957  0.07287  1.0000
  O   O20       1.0  0.19641  0.94226  0.42705  1.0000
  O   O21       1.0  0.24546  0.46846  0.90832  1.0000
  O   O22       1.0  0.06049  0.33734  0.59188  1.0000
  O   O23       1.0  0.75453  0.53154  0.09168  1.0000
  O   O24       1.0  0.93951  0.66266  0.40812  1.0000
  O   O25       1.0  0.26959  0.67475  0.63393  1.0000
  O   O26       1.0  0.54063  0.63577  0.86623  1.0000
  O   O27       1.0  0.73041  0.32525  0.36607  1.0000
  O   O28       1.0  0.45937  0.36423  0.13377  1.0000
  O   O29       1.0  0.59677  0.94145  0.18927  1.0000
  O   O30       1.0  0.25246  0.40770  0.31089  1.0000
  O   O31       1.0  0.40323  0.05855  0.81073  1.0000
  O   O32       1.0  0.74755  0.59229  0.68911  1.0000
  O   O33       1.0  0.33836  0.57762  0.13194  1.0000
  O   O34       1.0  0.94584  0.20633  0.36816  1.0000
  O   O35       1.0  0.66164  0.42238  0.86806  1.0000
  O   O36       1.0  0.05417  0.79367  0.63184  1.0000
