data_image0
_chemical_formula_structural       Gd4H24C28O36
_chemical_formula_sum              "Gd4 H24 C28 O36"
_cell_length_a       7.41224
_cell_length_b       9.4337
_cell_length_c       14.6132
_cell_angle_alpha    90.0001
_cell_angle_beta     102.731
_cell_angle_gamma    90

_space_group_name_H-M_alt    "P 1"
_space_group_IT_number       1

loop_
  _space_group_symop_operation_xyz
  'x, y, z'

loop_
  _atom_site_type_symbol
  _atom_site_label
  _atom_site_symmetry_multiplicity
  _atom_site_fract_x
  _atom_site_fract_y
  _atom_site_fract_z
  _atom_site_occupancy
  Gd  Gd1       1.0  0.62078  0.44723  0.35362  1.0000
  Gd  Gd2       1.0  0.87922  0.94723  0.14638  1.0000
  Gd  Gd3       1.0  0.37923  0.55277  0.64639  1.0000
  Gd  Gd4       1.0  0.12077  0.05277  0.85361  1.0000
  H   H1        1.0  0.72199  0.96124  0.63568  1.0000
  H   H2        1.0  0.77801  0.46125  0.86432  1.0000
  H   H3        1.0  0.27800  0.03876  0.36433  1.0000
  H   H4        1.0  0.22200  0.53876  0.13568  1.0000
  H   H5        1.0  0.83182  0.19334  0.55006  1.0000
  H   H6        1.0  0.66819  0.69335  0.94994  1.0000
  H   H7        1.0  0.16817  0.80666  0.44993  1.0000
  H   H8        1.0  0.33183  0.30666  0.05007  1.0000
  H   H9        1.0  0.19938  0.44636  0.28843  1.0000
  H   H10       1.0  0.30061  0.94638  0.21157  1.0000
  H   H11       1.0  0.80062  0.55365  0.71157  1.0000
  H   H12       1.0  0.69939  0.05364  0.78843  1.0000
  H   H13       1.0  0.26759  0.55759  0.36690  1.0000
  H   H14       1.0  0.23241  0.05760  0.13309  1.0000
  H   H15       1.0  0.73242  0.44241  0.63311  1.0000
  H   H16       1.0  0.76758  0.94241  0.86690  1.0000
  H   H17       1.0  0.52954  0.21813  0.19300  1.0000
  H   H18       1.0  0.97048  0.71813  0.30700  1.0000
  H   H19       1.0  0.47046  0.78187  0.80700  1.0000
  H   H20       1.0  0.02953  0.28188  0.69300  1.0000
  H   H21       1.0  0.37591  0.20321  0.24834  1.0000
  H   H22       1.0  0.12409  0.70322  0.25165  1.0000
  H   H23       1.0  0.62408  0.79678  0.75165  1.0000
  H   H24       1.0  0.87592  0.29678  0.74836  1.0000
  C   C1        1.0  0.60121  0.72867  0.49800  1.0000
  C   C2        1.0  0.89878  0.22868  0.00199  1.0000
  C   C3        1.0  0.39879  0.27132  0.50200  1.0000
  C   C4        1.0  0.10121  0.77132  0.99800  1.0000
  C   C5        1.0  0.68783  0.86804  0.49540  1.0000
  C   C6        1.0  0.81215  0.36804  0.00460  1.0000
  C   C7        1.0  0.31217  0.13196  0.50461  1.0000
  C   C8        1.0  0.18784  0.63196  0.99540  1.0000
  C   C9        1.0  0.73151  0.97171  0.56311  1.0000
  C   C10       1.0  0.76847  0.47171  0.93688  1.0000
  C   C11       1.0  0.26847  0.02830  0.43688  1.0000
  C   C12       1.0  0.23153  0.52829  0.06312  1.0000
  C   C13       1.0  0.78996  0.09118  0.51903  1.0000
  C   C14       1.0  0.71004  0.59118  0.98097  1.0000
  C   C15       1.0  0.21004  0.90882  0.48097  1.0000
  C   C16       1.0  0.28997  0.40882  0.01903  1.0000
  C   C17       1.0  0.78169  0.05328  0.42707  1.0000
  C   C18       1.0  0.71829  0.55328  0.07292  1.0000
  C   C19       1.0  0.21829  0.94671  0.57293  1.0000
  C   C20       1.0  0.28171  0.44672  0.92708  1.0000
  C   C21       1.0  0.83000  0.13139  0.34846  1.0000
  C   C22       1.0  0.66999  0.63139  0.15154  1.0000
  C   C23       1.0  0.16999  0.86860  0.65154  1.0000
  C   C24       1.0  0.33001  0.36861  0.84847  1.0000
  C   C25       1.0  0.96343  0.46159  0.53897  1.0000
  C   C26       1.0  0.53656  0.96159  0.96102  1.0000
  C   C27       1.0  0.03658  0.53841  0.46103  1.0000
  C   C28       1.0  0.46344  0.03841  0.03897  1.0000
  O   O1        1.0  0.79293  0.43075  0.52131  1.0000
  O   O2        1.0  0.70708  0.93075  0.97869  1.0000
  O   O3        1.0  0.20710  0.56925  0.47870  1.0000
  O   O4        1.0  0.29292  0.06925  0.02130  1.0000
  O   O5        1.0  0.56364  0.65497  0.42366  1.0000
  O   O6        1.0  0.93637  0.15497  0.07634  1.0000
  O   O7        1.0  0.43637  0.34503  0.57635  1.0000
  O   O8        1.0  0.06364  0.84503  0.92366  1.0000
  O   O9        1.0  0.28127  0.52821  0.30295  1.0000
  O   O10       1.0  0.21872  0.02823  0.19705  1.0000
  O   O11       1.0  0.71874  0.47180  0.69705  1.0000
  O   O12       1.0  0.78127  0.97178  0.80295  1.0000
  O   O13       1.0  0.56690  0.69346  0.57669  1.0000
  O   O14       1.0  0.93309  0.19347  0.92331  1.0000
  O   O15       1.0  0.43310  0.30654  0.42333  1.0000
  O   O16       1.0  0.06690  0.80654  0.07668  1.0000
  O   O17       1.0  0.46607  0.27174  0.23476  1.0000
  O   O18       1.0  0.03393  0.77175  0.26524  1.0000
  O   O19       1.0  0.53392  0.72826  0.76524  1.0000
  O   O20       1.0  0.96607  0.22825  0.73475  1.0000
  O   O21       1.0  0.72105  0.91602  0.41195  1.0000
  O   O22       1.0  0.77891  0.41602  0.08804  1.0000
  O   O23       1.0  0.27894  0.08397  0.58805  1.0000
  O   O24       1.0  0.22106  0.58398  0.91196  1.0000
  O   O25       1.0  0.83691  0.26621  0.35438  1.0000
  O   O26       1.0  0.66309  0.76621  0.14561  1.0000
  O   O27       1.0  0.16309  0.73378  0.64562  1.0000
  O   O28       1.0  0.33691  0.23379  0.85439  1.0000
  O   O29       1.0  0.86312  0.06039  0.28045  1.0000
  O   O30       1.0  0.63688  0.56040  0.21955  1.0000
  O   O31       1.0  0.13688  0.93960  0.71955  1.0000
  O   O32       1.0  0.36312  0.43960  0.78045  1.0000
  O   O33       1.0  0.07834  0.43532  0.61500  1.0000
  O   O34       1.0  0.42166  0.93533  0.88500  1.0000
  O   O35       1.0  0.92168  0.56466  0.38500  1.0000
  O   O36       1.0  0.57834  0.06467  0.11500  1.0000
