data_image0
_chemical_formula_structural       Tb4H24C28O36
_chemical_formula_sum              "Tb4 H24 C28 O36"
_cell_length_a       7.39381
_cell_length_b       9.41925
_cell_length_c       14.584
_cell_angle_alpha    90.0005
_cell_angle_beta     102.728
_cell_angle_gamma    90

_space_group_name_H-M_alt    "P 1"
_space_group_IT_number       1

loop_
  _space_group_symop_operation_xyz
  'x, y, z'

loop_
  _atom_site_type_symbol
  _atom_site_label
  _atom_site_symmetry_multiplicity
  _atom_site_fract_x
  _atom_site_fract_y
  _atom_site_fract_z
  _atom_site_occupancy
  Tb  Tb1       1.0  0.62135  0.44687  0.35374  1.0000
  Tb  Tb2       1.0  0.87865  0.94687  0.14626  1.0000
  Tb  Tb3       1.0  0.37865  0.55313  0.64625  1.0000
  Tb  Tb4       1.0  0.12136  0.05313  0.85374  1.0000
  H   H1        1.0  0.72169  0.96110  0.63566  1.0000
  H   H2        1.0  0.77832  0.46108  0.86435  1.0000
  H   H3        1.0  0.27831  0.03890  0.36434  1.0000
  H   H4        1.0  0.22167  0.53891  0.13565  1.0000
  H   H5        1.0  0.83144  0.19329  0.54973  1.0000
  H   H6        1.0  0.66857  0.69328  0.95027  1.0000
  H   H7        1.0  0.16857  0.80671  0.45027  1.0000
  H   H8        1.0  0.33143  0.30672  0.04973  1.0000
  H   H9        1.0  0.20013  0.44580  0.28824  1.0000
  H   H10       1.0  0.29987  0.94579  0.21176  1.0000
  H   H11       1.0  0.79986  0.55420  0.71176  1.0000
  H   H12       1.0  0.70013  0.05420  0.78824  1.0000
  H   H13       1.0  0.26830  0.55749  0.36673  1.0000
  H   H14       1.0  0.23170  0.05748  0.13327  1.0000
  H   H15       1.0  0.73170  0.44251  0.63327  1.0000
  H   H16       1.0  0.76831  0.94251  0.86673  1.0000
  H   H17       1.0  0.52959  0.21907  0.19329  1.0000
  H   H18       1.0  0.97040  0.71907  0.30671  1.0000
  H   H19       1.0  0.47041  0.78093  0.80671  1.0000
  H   H20       1.0  0.02960  0.28094  0.69329  1.0000
  H   H21       1.0  0.37585  0.20379  0.24894  1.0000
  H   H22       1.0  0.12415  0.70378  0.25106  1.0000
  H   H23       1.0  0.62414  0.79621  0.75105  1.0000
  H   H24       1.0  0.87587  0.29622  0.74895  1.0000
  C   C1        1.0  0.60080  0.72786  0.49777  1.0000
  C   C2        1.0  0.89921  0.22785  0.00223  1.0000
  C   C3        1.0  0.39919  0.27215  0.50222  1.0000
  C   C4        1.0  0.10079  0.77214  0.99777  1.0000
  C   C5        1.0  0.68768  0.86740  0.49518  1.0000
  C   C6        1.0  0.81232  0.36739  0.00483  1.0000
  C   C7        1.0  0.31231  0.13261  0.50482  1.0000
  C   C8        1.0  0.18767  0.63261  0.99518  1.0000
  C   C9        1.0  0.73128  0.97132  0.56297  1.0000
  C   C10       1.0  0.76873  0.47130  0.93704  1.0000
  C   C11       1.0  0.26872  0.02869  0.43704  1.0000
  C   C12       1.0  0.23127  0.52869  0.06296  1.0000
  C   C13       1.0  0.78980  0.09091  0.51874  1.0000
  C   C14       1.0  0.71021  0.59090  0.98127  1.0000
  C   C15       1.0  0.21020  0.90910  0.48126  1.0000
  C   C16       1.0  0.28980  0.40910  0.01874  1.0000
  C   C17       1.0  0.78176  0.05283  0.42668  1.0000
  C   C18       1.0  0.71824  0.55283  0.07333  1.0000
  C   C19       1.0  0.21824  0.94717  0.57332  1.0000
  C   C20       1.0  0.28177  0.44717  0.92668  1.0000
  C   C21       1.0  0.82969  0.13112  0.34779  1.0000
  C   C22       1.0  0.67031  0.63113  0.15222  1.0000
  C   C23       1.0  0.17031  0.86888  0.65221  1.0000
  C   C24       1.0  0.32970  0.36887  0.84779  1.0000
  C   C25       1.0  0.96347  0.46151  0.53903  1.0000
  C   C26       1.0  0.53652  0.96150  0.96097  1.0000
  C   C27       1.0  0.03650  0.53850  0.46096  1.0000
  C   C28       1.0  0.46350  0.03849  0.03903  1.0000
  O   O1        1.0  0.79279  0.42979  0.52112  1.0000
  O   O2        1.0  0.70722  0.92978  0.97888  1.0000
  O   O3        1.0  0.20720  0.57022  0.47888  1.0000
  O   O4        1.0  0.29280  0.07020  0.02112  1.0000
  O   O5        1.0  0.56433  0.65365  0.42344  1.0000
  O   O6        1.0  0.93568  0.15365  0.07657  1.0000
  O   O7        1.0  0.43567  0.34635  0.57656  1.0000
  O   O8        1.0  0.06433  0.84635  0.92343  1.0000
  O   O9        1.0  0.28226  0.52778  0.30276  1.0000
  O   O10       1.0  0.21775  0.02777  0.19724  1.0000
  O   O11       1.0  0.71774  0.47223  0.69724  1.0000
  O   O12       1.0  0.78226  0.97223  0.80276  1.0000
  O   O13       1.0  0.56535  0.69298  0.57649  1.0000
  O   O14       1.0  0.93466  0.19298  0.92352  1.0000
  O   O15       1.0  0.43463  0.30702  0.42351  1.0000
  O   O16       1.0  0.06535  0.80702  0.07648  1.0000
  O   O17       1.0  0.46540  0.27279  0.23486  1.0000
  O   O18       1.0  0.03459  0.77279  0.26513  1.0000
  O   O19       1.0  0.53459  0.72720  0.76514  1.0000
  O   O20       1.0  0.96542  0.22722  0.73487  1.0000
  O   O21       1.0  0.72103  0.91532  0.41159  1.0000
  O   O22       1.0  0.77897  0.41532  0.08842  1.0000
  O   O23       1.0  0.27897  0.08468  0.58841  1.0000
  O   O24       1.0  0.22103  0.58468  0.91158  1.0000
  O   O25       1.0  0.83553  0.26622  0.35348  1.0000
  O   O26       1.0  0.66446  0.76622  0.14652  1.0000
  O   O27       1.0  0.16447  0.73378  0.64652  1.0000
  O   O28       1.0  0.33556  0.23378  0.85349  1.0000
  O   O29       1.0  0.86346  0.05999  0.27979  1.0000
  O   O30       1.0  0.63653  0.56000  0.22021  1.0000
  O   O31       1.0  0.13654  0.94001  0.72021  1.0000
  O   O32       1.0  0.36347  0.44000  0.77979  1.0000
  O   O33       1.0  0.07861  0.43607  0.61538  1.0000
  O   O34       1.0  0.42140  0.93605  0.88462  1.0000
  O   O35       1.0  0.92138  0.56394  0.38461  1.0000
  O   O36       1.0  0.57862  0.06395  0.11538  1.0000
