data_image0
_chemical_formula_structural       Dy4H24C28O36
_chemical_formula_sum              "Dy4 H24 C28 O36"
_cell_length_a       9.84942
_cell_length_b       9.84948
_cell_length_c       13.0418
_cell_angle_alpha    95.4004
_cell_angle_beta     108.937
_cell_angle_gamma    116.465

_space_group_name_H-M_alt    "P 1"
_space_group_IT_number       1

loop_
  _space_group_symop_operation_xyz
  'x, y, z'

loop_
  _atom_site_type_symbol
  _atom_site_label
  _atom_site_symmetry_multiplicity
  _atom_site_fract_x
  _atom_site_fract_y
  _atom_site_fract_z
  _atom_site_occupancy
  Dy  Dy1       1.0  0.46117  0.73612  0.00423  1.0000
  Dy  Dy2       1.0  0.23219  0.45724  0.49575  1.0000
  Dy  Dy3       1.0  0.53883  0.26389  0.99576  1.0000
  Dy  Dy4       1.0  0.76780  0.54275  0.50425  1.0000
  H   H1        1.0  0.69197  0.93685  0.23500  1.0000
  H   H2        1.0  0.20217  0.45708  0.26497  1.0000
  H   H3        1.0  0.30804  0.06316  0.76499  1.0000
  H   H4        1.0  0.79783  0.54292  0.73503  1.0000
  H   H5        1.0  0.63491  0.04942  0.18258  1.0000
  H   H6        1.0  0.36714  0.45238  0.31740  1.0000
  H   H7        1.0  0.36509  0.95059  0.81742  1.0000
  H   H8        1.0  0.63286  0.54762  0.68259  1.0000
  H   H9        1.0  0.78434  0.83997  0.85318  1.0000
  H   H10       1.0  0.48714  0.93106  0.64669  1.0000
  H   H11       1.0  0.21567  0.16004  0.14683  1.0000
  H   H12       1.0  0.51287  0.06892  0.35332  1.0000
  H   H13       1.0  0.05096  0.97608  0.79950  1.0000
  H   H14       1.0  0.67690  0.25139  0.70064  1.0000
  H   H15       1.0  0.94905  0.02394  0.20051  1.0000
  H   H16       1.0  0.32310  0.74860  0.29937  1.0000
  H   H17       1.0  0.23015  0.52669  0.07927  1.0000
  H   H18       1.0  0.94779  0.15093  0.42063  1.0000
  H   H19       1.0  0.76985  0.47332  0.92072  1.0000
  H   H20       1.0  0.05220  0.84906  0.57937  1.0000
  H   H21       1.0  0.38752  0.51306  0.13843  1.0000
  H   H22       1.0  0.87479  0.24904  0.36153  1.0000
  H   H23       1.0  0.61248  0.48695  0.86157  1.0000
  H   H24       1.0  0.12521  0.75096  0.63847  1.0000
  C   C1        1.0  0.74191  0.08812  0.96930  1.0000
  C   C2        1.0  0.61914  0.77276  0.53050  1.0000
  C   C3        1.0  0.25809  0.91190  0.03070  1.0000
  C   C4        1.0  0.38086  0.22723  0.46950  1.0000
  C   C5        1.0  0.07497  0.19786  0.88079  1.0000
  C   C6        1.0  0.81753  0.19438  0.61929  1.0000
  C   C7        1.0  0.92503  0.80215  0.11922  1.0000
  C   C8        1.0  0.18248  0.80561  0.38072  1.0000
  C   C9        1.0  0.86749  0.96508  0.86922  1.0000
  C   C10       1.0  0.59628  0.99834  0.63078  1.0000
  C   C11       1.0  0.13251  0.03493  0.13079  1.0000
  C   C12       1.0  0.40372  0.00165  0.36923  1.0000
  C   C13       1.0  0.22974  0.33451  0.89062  1.0000
  C   C14       1.0  0.94422  0.33940  0.60939  1.0000
  C   C15       1.0  0.77026  0.66550  0.10938  1.0000
  C   C16       1.0  0.05578  0.66058  0.39061  1.0000
  C   C17       1.0  0.00691  0.03657  0.84222  1.0000
  C   C18       1.0  0.69476  0.16475  0.65786  1.0000
  C   C19       1.0  0.99309  0.96344  0.15779  1.0000
  C   C20       1.0  0.30524  0.83524  0.34215  1.0000
  C   C21       1.0  0.33788  0.68137  0.73646  1.0000
  C   C22       1.0  0.44487  0.60141  0.76355  1.0000
  C   C23       1.0  0.66212  0.31862  0.26353  1.0000
  C   C24       1.0  0.55513  0.39858  0.23644  1.0000
  C   C25       1.0  0.85823  0.08623  0.92264  1.0000
  C   C26       1.0  0.66402  0.93574  0.57729  1.0000
  C   C27       1.0  0.14177  0.91378  0.07736  1.0000
  C   C28       1.0  0.33599  0.06425  0.42271  1.0000
  O   O1        1.0  0.64656  0.96008  0.98386  1.0000
  O   O2        1.0  0.47652  0.66289  0.51596  1.0000
  O   O3        1.0  0.35344  0.03993  0.01614  1.0000
  O   O4        1.0  0.52349  0.33711  0.48405  1.0000
  O   O5        1.0  0.74234  0.21697  0.99046  1.0000
  O   O6        1.0  0.72674  0.75193  0.50927  1.0000
  O   O7        1.0  0.25767  0.78305  0.00954  1.0000
  O   O8        1.0  0.27326  0.24806  0.49073  1.0000
  O   O9        1.0  0.33453  0.75551  0.81955  1.0000
  O   O10       1.0  0.43611  0.51526  0.68041  1.0000
  O   O11       1.0  0.66548  0.24450  0.18045  1.0000
  O   O12       1.0  0.56388  0.48473  0.31957  1.0000
  O   O13       1.0  0.33993  0.30476  0.88165  1.0000
  O   O14       1.0  0.92333  0.45850  0.61840  1.0000
  O   O15       1.0  0.66006  0.69525  0.11834  1.0000
  O   O16       1.0  0.07666  0.54148  0.38160  1.0000
  O   O17       1.0  0.98310  0.22926  0.92851  1.0000
  O   O18       1.0  0.80118  0.05483  0.57144  1.0000
  O   O19       1.0  0.01690  0.77075  0.07149  1.0000
  O   O20       1.0  0.19883  0.94516  0.42857  1.0000
  O   O21       1.0  0.24684  0.47106  0.91084  1.0000
  O   O22       1.0  0.06052  0.33640  0.58907  1.0000
  O   O23       1.0  0.75315  0.52894  0.08916  1.0000
  O   O24       1.0  0.93947  0.66360  0.41093  1.0000
  O   O25       1.0  0.26627  0.67214  0.63380  1.0000
  O   O26       1.0  0.53800  0.63211  0.86624  1.0000
  O   O27       1.0  0.73374  0.32786  0.36619  1.0000
  O   O28       1.0  0.46201  0.36789  0.13375  1.0000
  O   O29       1.0  0.59482  0.93830  0.18523  1.0000
  O   O30       1.0  0.25341  0.40978  0.31481  1.0000
  O   O31       1.0  0.40519  0.06170  0.81477  1.0000
  O   O32       1.0  0.74659  0.59022  0.68519  1.0000
  O   O33       1.0  0.34633  0.58883  0.13383  1.0000
  O   O34       1.0  0.95529  0.21263  0.36610  1.0000
  O   O35       1.0  0.65367  0.41117  0.86616  1.0000
  O   O36       1.0  0.04471  0.78737  0.63390  1.0000
