data_image0
_chemical_formula_structural       Ho4H24C28O36
_chemical_formula_sum              "Ho4 H24 C28 O36"
_cell_length_a       9.82557
_cell_length_b       9.82521
_cell_length_c       13.0642
_cell_angle_alpha    95.4
_cell_angle_beta     108.931
_cell_angle_gamma    116.296

_space_group_name_H-M_alt    "P 1"
_space_group_IT_number       1

loop_
  _space_group_symop_operation_xyz
  'x, y, z'

loop_
  _atom_site_type_symbol
  _atom_site_label
  _atom_site_symmetry_multiplicity
  _atom_site_fract_x
  _atom_site_fract_y
  _atom_site_fract_z
  _atom_site_occupancy
  Ho  Ho1       1.0  0.46111  0.73618  0.00331  1.0000
  Ho  Ho2       1.0  0.23277  0.45778  0.49659  1.0000
  Ho  Ho3       1.0  0.53889  0.26382  0.99669  1.0000
  Ho  Ho4       1.0  0.76723  0.54222  0.50341  1.0000
  H   H1        1.0  0.69099  0.93465  0.23338  1.0000
  H   H2        1.0  0.20167  0.45776  0.26656  1.0000
  H   H3        1.0  0.30901  0.06535  0.76663  1.0000
  H   H4        1.0  0.79832  0.54223  0.73344  1.0000
  H   H5        1.0  0.63697  0.04983  0.18142  1.0000
  H   H6        1.0  0.36880  0.45578  0.31866  1.0000
  H   H7        1.0  0.36303  0.95017  0.81858  1.0000
  H   H8        1.0  0.63120  0.54421  0.68134  1.0000
  H   H9        1.0  0.78502  0.83957  0.85248  1.0000
  H   H10       1.0  0.48686  0.93231  0.64724  1.0000
  H   H11       1.0  0.21498  0.16043  0.14752  1.0000
  H   H12       1.0  0.51314  0.06769  0.35276  1.0000
  H   H13       1.0  0.05425  0.97767  0.80163  1.0000
  H   H14       1.0  0.67575  0.25236  0.69812  1.0000
  H   H15       1.0  0.94574  0.02233  0.19836  1.0000
  H   H16       1.0  0.32425  0.74763  0.30188  1.0000
  H   H17       1.0  0.23349  0.53267  0.08167  1.0000
  H   H18       1.0  0.95108  0.15170  0.41822  1.0000
  H   H19       1.0  0.76652  0.46733  0.91833  1.0000
  H   H20       1.0  0.04891  0.84830  0.58178  1.0000
  H   H21       1.0  0.39051  0.51721  0.13930  1.0000
  H   H22       1.0  0.87790  0.25105  0.36062  1.0000
  H   H23       1.0  0.60949  0.48279  0.86070  1.0000
  H   H24       1.0  0.12210  0.74896  0.63939  1.0000
  C   C1        1.0  0.74024  0.08675  0.96855  1.0000
  C   C2        1.0  0.61815  0.77158  0.53129  1.0000
  C   C3        1.0  0.25976  0.91326  0.03145  1.0000
  C   C4        1.0  0.38185  0.22842  0.46871  1.0000
  C   C5        1.0  0.07471  0.19863  0.88122  1.0000
  C   C6        1.0  0.81732  0.19333  0.61868  1.0000
  C   C7        1.0  0.92528  0.80137  0.11877  1.0000
  C   C8        1.0  0.18267  0.80667  0.38132  1.0000
  C   C9        1.0  0.86752  0.96494  0.86873  1.0000
  C   C10       1.0  0.59607  0.99859  0.63108  1.0000
  C   C11       1.0  0.13248  0.03506  0.13127  1.0000
  C   C12       1.0  0.40392  0.00141  0.36892  1.0000
  C   C13       1.0  0.23038  0.33566  0.89274  1.0000
  C   C14       1.0  0.94280  0.33757  0.60720  1.0000
  C   C15       1.0  0.76962  0.66434  0.10726  1.0000
  C   C16       1.0  0.05720  0.66243  0.39280  1.0000
  C   C17       1.0  0.00789  0.03743  0.84275  1.0000
  C   C18       1.0  0.69450  0.16492  0.65709  1.0000
  C   C19       1.0  0.99210  0.96257  0.15724  1.0000
  C   C20       1.0  0.30550  0.83508  0.34291  1.0000
  C   C21       1.0  0.33599  0.67988  0.73648  1.0000
  C   C22       1.0  0.44309  0.59946  0.76335  1.0000
  C   C23       1.0  0.66402  0.32012  0.26352  1.0000
  C   C24       1.0  0.55691  0.40053  0.23665  1.0000
  C   C25       1.0  0.85663  0.08558  0.92157  1.0000
  C   C26       1.0  0.66398  0.93493  0.57829  1.0000
  C   C27       1.0  0.14337  0.91442  0.07842  1.0000
  C   C28       1.0  0.33602  0.06507  0.42171  1.0000
  O   O1        1.0  0.64495  0.95794  0.98238  1.0000
  O   O2        1.0  0.47550  0.66249  0.51742  1.0000
  O   O3        1.0  0.35505  0.04206  0.01762  1.0000
  O   O4        1.0  0.52450  0.33751  0.48258  1.0000
  O   O5        1.0  0.74095  0.21578  0.99117  1.0000
  O   O6        1.0  0.72459  0.74969  0.50868  1.0000
  O   O7        1.0  0.25905  0.78423  0.00884  1.0000
  O   O8        1.0  0.27541  0.25031  0.49131  1.0000
  O   O9        1.0  0.33284  0.75415  0.81958  1.0000
  O   O10       1.0  0.43421  0.51317  0.68026  1.0000
  O   O11       1.0  0.66717  0.24585  0.18042  1.0000
  O   O12       1.0  0.56578  0.48682  0.31975  1.0000
  O   O13       1.0  0.34135  0.30604  0.88457  1.0000
  O   O14       1.0  0.92141  0.45674  0.61556  1.0000
  O   O15       1.0  0.65864  0.69396  0.11543  1.0000
  O   O16       1.0  0.07859  0.54326  0.38445  1.0000
  O   O17       1.0  0.98131  0.22918  0.92802  1.0000
  O   O18       1.0  0.80116  0.05319  0.57189  1.0000
  O   O19       1.0  0.01869  0.77083  0.07197  1.0000
  O   O20       1.0  0.19884  0.94682  0.42811  1.0000
  O   O21       1.0  0.24739  0.47239  0.91345  1.0000
  O   O22       1.0  0.05878  0.33395  0.58639  1.0000
  O   O23       1.0  0.75262  0.52761  0.08655  1.0000
  O   O24       1.0  0.94122  0.66606  0.41362  1.0000
  O   O25       1.0  0.26400  0.67047  0.63401  1.0000
  O   O26       1.0  0.53611  0.62985  0.86580  1.0000
  O   O27       1.0  0.73601  0.32953  0.36599  1.0000
  O   O28       1.0  0.46389  0.37015  0.13420  1.0000
  O   O29       1.0  0.59522  0.93822  0.18343  1.0000
  O   O30       1.0  0.25512  0.41191  0.31655  1.0000
  O   O31       1.0  0.40479  0.06178  0.81657  1.0000
  O   O32       1.0  0.74487  0.58808  0.68345  1.0000
  O   O33       1.0  0.35016  0.59394  0.13531  1.0000
  O   O34       1.0  0.95862  0.21472  0.36454  1.0000
  O   O35       1.0  0.64984  0.40606  0.86469  1.0000
  O   O36       1.0  0.04139  0.78529  0.63547  1.0000
