data_image0
_chemical_formula_structural       Tb4H24C28O36
_chemical_formula_sum              "Tb4 H24 C28 O36"
_cell_length_a       9.86893
_cell_length_b       9.86793
_cell_length_c       13.0219
_cell_angle_alpha    95.1933
_cell_angle_beta     109.057
_cell_angle_gamma    116.722

_space_group_name_H-M_alt    "P 1"
_space_group_IT_number       1

loop_
  _space_group_symop_operation_xyz
  'x, y, z'

loop_
  _atom_site_type_symbol
  _atom_site_label
  _atom_site_symmetry_multiplicity
  _atom_site_fract_x
  _atom_site_fract_y
  _atom_site_fract_z
  _atom_site_occupancy
  Tb  Tb1       1.0  0.46121  0.73708  0.00520  1.0000
  Tb  Tb2       1.0  0.23171  0.45597  0.49482  1.0000
  Tb  Tb3       1.0  0.53879  0.26291  0.99481  1.0000
  Tb  Tb4       1.0  0.76829  0.54404  0.50518  1.0000
  H   H1        1.0  0.69423  0.94012  0.23747  1.0000
  H   H2        1.0  0.20271  0.45692  0.26246  1.0000
  H   H3        1.0  0.30577  0.05989  0.76253  1.0000
  H   H4        1.0  0.79729  0.54307  0.73754  1.0000
  H   H5        1.0  0.63345  0.04955  0.18444  1.0000
  H   H6        1.0  0.36509  0.44913  0.31559  1.0000
  H   H7        1.0  0.36656  0.95045  0.81556  1.0000
  H   H8        1.0  0.63491  0.55087  0.68441  1.0000
  H   H9        1.0  0.78342  0.84075  0.85334  1.0000
  H   H10       1.0  0.48738  0.93002  0.64668  1.0000
  H   H11       1.0  0.21658  0.15925  0.14666  1.0000
  H   H12       1.0  0.51262  0.06998  0.35332  1.0000
  H   H13       1.0  0.04811  0.97528  0.79743  1.0000
  H   H14       1.0  0.67784  0.25065  0.70248  1.0000
  H   H15       1.0  0.95188  0.02472  0.20257  1.0000
  H   H16       1.0  0.32217  0.74935  0.29752  1.0000
  H   H17       1.0  0.22543  0.51838  0.07521  1.0000
  H   H18       1.0  0.94296  0.15011  0.42468  1.0000
  H   H19       1.0  0.77456  0.48161  0.92479  1.0000
  H   H20       1.0  0.05704  0.84989  0.57532  1.0000
  H   H21       1.0  0.38395  0.50820  0.13696  1.0000
  H   H22       1.0  0.87123  0.24700  0.36289  1.0000
  H   H23       1.0  0.61605  0.49180  0.86304  1.0000
  H   H24       1.0  0.12877  0.75300  0.63711  1.0000
  C   C1        1.0  0.74556  0.09117  0.97070  1.0000
  C   C2        1.0  0.62027  0.77462  0.52934  1.0000
  C   C3        1.0  0.25443  0.90883  0.02930  1.0000
  C   C4        1.0  0.37973  0.22538  0.47067  1.0000
  C   C5        1.0  0.07510  0.19761  0.87901  1.0000
  C   C6        1.0  0.81839  0.19587  0.62084  1.0000
  C   C7        1.0  0.92490  0.80238  0.12099  1.0000
  C   C8        1.0  0.18161  0.80412  0.37916  1.0000
  C   C9        1.0  0.86708  0.96572  0.86890  1.0000
  C   C10       1.0  0.59675  0.99806  0.63109  1.0000
  C   C11       1.0  0.13292  0.03428  0.13110  1.0000
  C   C12       1.0  0.40325  0.00194  0.36891  1.0000
  C   C13       1.0  0.23017  0.33395  0.88843  1.0000
  C   C14       1.0  0.94543  0.34154  0.61150  1.0000
  C   C15       1.0  0.76983  0.66606  0.11157  1.0000
  C   C16       1.0  0.05458  0.65846  0.38849  1.0000
  C   C17       1.0  0.00545  0.03620  0.84069  1.0000
  C   C18       1.0  0.69539  0.16464  0.65922  1.0000
  C   C19       1.0  0.99455  0.96381  0.15931  1.0000
  C   C20       1.0  0.30461  0.83536  0.34078  1.0000
  C   C21       1.0  0.33998  0.68323  0.73619  1.0000
  C   C22       1.0  0.44697  0.60389  0.76388  1.0000
  C   C23       1.0  0.66003  0.31677  0.26381  1.0000
  C   C24       1.0  0.55304  0.39611  0.23612  1.0000
  C   C25       1.0  0.85989  0.08766  0.92275  1.0000
  C   C26       1.0  0.66475  0.93692  0.57725  1.0000
  C   C27       1.0  0.14010  0.91234  0.07724  1.0000
  C   C28       1.0  0.33525  0.06308  0.42275  1.0000
  O   O1        1.0  0.65065  0.96410  0.98690  1.0000
  O   O2        1.0  0.47704  0.66359  0.51326  1.0000
  O   O3        1.0  0.34935  0.03591  0.01310  1.0000
  O   O4        1.0  0.52296  0.33642  0.48675  1.0000
  O   O5        1.0  0.74664  0.22025  0.99104  1.0000
  O   O6        1.0  0.72891  0.75532  0.50889  1.0000
  O   O7        1.0  0.25335  0.77976  0.00896  1.0000
  O   O8        1.0  0.27109  0.24468  0.49112  1.0000
  O   O9        1.0  0.33736  0.75805  0.81920  1.0000
  O   O10       1.0  0.43872  0.51822  0.68089  1.0000
  O   O11       1.0  0.66263  0.24194  0.18081  1.0000
  O   O12       1.0  0.56128  0.48177  0.31911  1.0000
  O   O13       1.0  0.33988  0.30435  0.87909  1.0000
  O   O14       1.0  0.92534  0.46069  0.62094  1.0000
  O   O15       1.0  0.66011  0.69565  0.12091  1.0000
  O   O16       1.0  0.07468  0.53932  0.37907  1.0000
  O   O17       1.0  0.98513  0.23012  0.92772  1.0000
  O   O18       1.0  0.80217  0.05714  0.57219  1.0000
  O   O19       1.0  0.01486  0.76988  0.07227  1.0000
  O   O20       1.0  0.19782  0.94285  0.42780  1.0000
  O   O21       1.0  0.24787  0.47048  0.90884  1.0000
  O   O22       1.0  0.06149  0.33867  0.59109  1.0000
  O   O23       1.0  0.75212  0.52951  0.09116  1.0000
  O   O24       1.0  0.93851  0.66132  0.40891  1.0000
  O   O25       1.0  0.26800  0.67354  0.63327  1.0000
  O   O26       1.0  0.54018  0.63486  0.86681  1.0000
  O   O27       1.0  0.73200  0.32646  0.36673  1.0000
  O   O28       1.0  0.45983  0.36514  0.13318  1.0000
  O   O29       1.0  0.59517  0.93873  0.18763  1.0000
  O   O30       1.0  0.25109  0.40772  0.31237  1.0000
  O   O31       1.0  0.40483  0.06127  0.81237  1.0000
  O   O32       1.0  0.74892  0.59228  0.68763  1.0000
  O   O33       1.0  0.34059  0.58199  0.13188  1.0000
  O   O34       1.0  0.95017  0.20874  0.36810  1.0000
  O   O35       1.0  0.65941  0.41800  0.86812  1.0000
  O   O36       1.0  0.04983  0.79125  0.63189  1.0000
