data_image0
_chemical_formula_structural       Cd2H24C24S2N8O10
_chemical_formula_sum              "Cd2 H24 C24 S2 N8 O10"
_cell_length_a       7.61692
_cell_length_b       10.6694
_cell_length_c       10.8716
_cell_angle_alpha    104.694
_cell_angle_beta     101.718
_cell_angle_gamma    108.006

_space_group_name_H-M_alt    "P 1"
_space_group_IT_number       1

loop_
  _space_group_symop_operation_xyz
  'x, y, z'

loop_
  _atom_site_type_symbol
  _atom_site_label
  _atom_site_symmetry_multiplicity
  _atom_site_fract_x
  _atom_site_fract_y
  _atom_site_fract_z
  _atom_site_occupancy
  Cd  Cd1       1.0  0.21185  0.13204  0.24380  1.0000
  Cd  Cd2       1.0  0.78815  0.86796  0.75620  1.0000
  H   H1        1.0  0.65231  0.11609  0.21052  1.0000
  H   H2        1.0  0.34770  0.88391  0.78948  1.0000
  H   H3        1.0  0.53791  0.46701  0.39944  1.0000
  H   H4        1.0  0.46208  0.53299  0.60056  1.0000
  H   H5        1.0  0.92026  0.55696  0.39594  1.0000
  H   H6        1.0  0.07973  0.44304  0.60406  1.0000
  H   H7        1.0  0.97238  0.16098  0.67881  1.0000
  H   H8        1.0  0.02762  0.83902  0.32118  1.0000
  H   H9        1.0  0.96154  0.33515  0.27124  1.0000
  H   H10       1.0  0.03846  0.66485  0.72876  1.0000
  H   H11       1.0  0.83169  0.04736  0.06129  1.0000
  H   H12       1.0  0.16831  0.95264  0.93872  1.0000
  H   H13       1.0  0.84775  0.91077  0.07856  1.0000
  H   H14       1.0  0.15225  0.08923  0.92144  1.0000
  H   H15       1.0  0.33664  0.46495  0.91926  1.0000
  H   H16       1.0  0.66336  0.53505  0.08074  1.0000
  H   H17       1.0  0.37817  0.72832  0.95082  1.0000
  H   H18       1.0  0.62183  0.27169  0.04919  1.0000
  H   H19       1.0  0.88003  0.12286  0.43020  1.0000
  H   H20       1.0  0.11997  0.87714  0.56980  1.0000
  H   H21       1.0  0.48732  0.24610  0.56511  1.0000
  H   H22       1.0  0.51268  0.75390  0.43489  1.0000
  H   H23       1.0  0.34244  0.24214  0.78108  1.0000
  H   H24       1.0  0.65756  0.75786  0.21892  1.0000
  C   C1        1.0  0.19913  0.34515  0.10529  1.0000
  C   C2        1.0  0.80087  0.65485  0.89471  1.0000
  C   C3        1.0  0.67168  0.22255  0.26431  1.0000
  C   C4        1.0  0.32832  0.77745  0.73569  1.0000
  C   C5        1.0  0.61919  0.40697  0.36202  1.0000
  C   C6        1.0  0.38081  0.59303  0.63798  1.0000
  C   C7        1.0  0.80806  0.45305  0.36020  1.0000
  C   C8        1.0  0.19194  0.54695  0.63980  1.0000
  C   C9        1.0  0.22908  0.48393  0.09060  1.0000
  C   C10       1.0  0.77092  0.51607  0.90940  1.0000
  C   C11       1.0  0.30005  0.53063  0.99573  1.0000
  C   C12       1.0  0.69994  0.46937  0.00427  1.0000
  C   C13       1.0  0.31943  0.66959  0.01113  1.0000
  C   C14       1.0  0.68058  0.33041  0.98888  1.0000
  C   C15       1.0  0.25951  0.72751  0.11612  1.0000
  C   C16       1.0  0.74049  0.27249  0.88388  1.0000
  C   C17       1.0  0.25162  0.86766  0.15728  1.0000
  C   C18       1.0  0.74838  0.13234  0.84272  1.0000
  C   C19       1.0  0.02729  0.15910  0.49475  1.0000
  C   C20       1.0  0.97271  0.84091  0.50525  1.0000
  C   C21       1.0  0.33993  0.22145  0.56902  1.0000
  C   C22       1.0  0.66007  0.77855  0.43098  1.0000
  C   C23       1.0  0.27100  0.22024  0.67666  1.0000
  C   C24       1.0  0.72900  0.77977  0.32334  1.0000
  S   S1        1.0  0.18514  0.61152  0.19786  1.0000
  S   S2        1.0  0.81486  0.38848  0.80214  1.0000
  N   N1        1.0  0.18642  0.18363  0.45614  1.0000
  N   N2        1.0  0.81358  0.81637  0.54386  1.0000
  N   N3        1.0  0.07358  0.18122  0.62735  1.0000
  N   N4        1.0  0.92642  0.81878  0.37265  1.0000
  N   N5        1.0  0.53579  0.26289  0.30201  1.0000
  N   N6        1.0  0.46421  0.73710  0.69799  1.0000
  N   N7        1.0  0.83874  0.33529  0.29910  1.0000
  N   N8        1.0  0.16126  0.66471  0.70090  1.0000
  O   O1        1.0  0.88289  0.01129  0.13062  1.0000
  O   O2        1.0  0.11711  0.98870  0.86938  1.0000
  O   O3        1.0  0.23057  0.25735  0.01973  1.0000
  O   O4        1.0  0.76944  0.74265  0.98028  1.0000
  O   O5        1.0  0.14960  0.32491  0.20771  1.0000
  O   O6        1.0  0.85040  0.67509  0.79229  1.0000
  O   O7        1.0  0.28876  0.94513  0.08647  1.0000
  O   O8        1.0  0.71125  0.05487  0.91354  1.0000
  O   O9        1.0  0.20886  0.90843  0.26476  1.0000
  O   O10       1.0  0.79114  0.09157  0.73525  1.0000
