data_image0
_chemical_formula_structural       Cu2H18C18N8O6
_chemical_formula_sum              "Cu2 H18 C18 N8 O6"
_cell_length_a       7.97803
_cell_length_b       7.96033
_cell_length_c       8.62645
_cell_angle_alpha    102.348
_cell_angle_beta     105.892
_cell_angle_gamma    96.7901

_space_group_name_H-M_alt    "P 1"
_space_group_IT_number       1

loop_
  _space_group_symop_operation_xyz
  'x, y, z'

loop_
  _atom_site_type_symbol
  _atom_site_label
  _atom_site_symmetry_multiplicity
  _atom_site_fract_x
  _atom_site_fract_y
  _atom_site_fract_z
  _atom_site_occupancy
  Cu  Cu1       1.0  0.01811  0.20416  0.13757  1.0000
  Cu  Cu2       1.0  0.98189  0.79584  0.86243  1.0000
  H   H1        1.0  0.20042  0.59210  0.40587  1.0000
  H   H2        1.0  0.79957  0.40790  0.59413  1.0000
  H   H3        1.0  0.43066  0.86140  0.53922  1.0000
  H   H4        1.0  0.56933  0.13860  0.46078  1.0000
  H   H5        1.0  0.71830  0.89007  0.47856  1.0000
  H   H6        1.0  0.28170  0.10993  0.52144  1.0000
  H   H7        1.0  0.78410  0.64912  0.28117  1.0000
  H   H8        1.0  0.21590  0.35088  0.71883  1.0000
  H   H9        1.0  0.73197  0.38405  0.04070  1.0000
  H   H10       1.0  0.26803  0.61596  0.95931  1.0000
  H   H11       1.0  0.59648  0.17265  0.94302  1.0000
  H   H12       1.0  0.40352  0.82736  0.05698  1.0000
  H   H13       1.0  0.73883  0.05542  0.17796  1.0000
  H   H14       1.0  0.26117  0.94459  0.82203  1.0000
  H   H15       1.0  0.94268  0.43747  0.34670  1.0000
  H   H16       1.0  0.05732  0.56253  0.65330  1.0000
  H   H17       1.0  0.97707  0.24025  0.42691  1.0000
  H   H18       1.0  0.02293  0.75975  0.57310  1.0000
  C   C1        1.0  0.36352  0.46764  0.26813  1.0000
  C   C2        1.0  0.63648  0.53236  0.73187  1.0000
  C   C3        1.0  0.32552  0.60387  0.37847  1.0000
  C   C4        1.0  0.67448  0.39613  0.62152  1.0000
  C   C5        1.0  0.45486  0.75403  0.45104  1.0000
  C   C6        1.0  0.54514  0.24597  0.54896  1.0000
  C   C7        1.0  0.61861  0.77098  0.41597  1.0000
  C   C8        1.0  0.38139  0.22901  0.58403  1.0000
  C   C9        1.0  0.65815  0.63717  0.30752  1.0000
  C   C10       1.0  0.34184  0.36283  0.69248  1.0000
  C   C11       1.0  0.52757  0.48514  0.23525  1.0000
  C   C12       1.0  0.47243  0.51486  0.76475  1.0000
  C   C13       1.0  0.66064  0.26936  0.06300  1.0000
  C   C14       1.0  0.33936  0.73065  0.93701  1.0000
  C   C15       1.0  0.78435  0.19245  0.18415  1.0000
  C   C16       1.0  0.21566  0.80756  0.81584  1.0000
  C   C17       1.0  0.92004  0.29517  0.32317  1.0000
  C   C18       1.0  0.07997  0.70483  0.67682  1.0000
  N   N1        1.0  0.26847  0.30307  0.17766  1.0000
  N   N2        1.0  0.73153  0.69693  0.82233  1.0000
  N   N3        1.0  0.36371  0.22042  0.09455  1.0000
  N   N4        1.0  0.63629  0.77958  0.90545  1.0000
  N   N5        1.0  0.51924  0.32836  0.12723  1.0000
  N   N6        1.0  0.48076  0.67164  0.87277  1.0000
  N   N7        1.0  0.97331  0.18574  0.79397  1.0000
  N   N8        1.0  0.02669  0.81426  0.20603  1.0000
  O   O1        1.0  0.01886  0.34790  0.85589  1.0000
  O   O2        1.0  0.98112  0.65210  0.14411  1.0000
  O   O3        1.0  0.93746  0.08700  0.88870  1.0000
  O   O4        1.0  0.06254  0.91300  0.11130  1.0000
  O   O5        1.0  0.95990  0.11311  0.64655  1.0000
  O   O6        1.0  0.04011  0.88689  0.35345  1.0000
