data_image0
_chemical_formula_structural       Rb4U2H24C28N4O26
_chemical_formula_sum              "Rb4 U2 H24 C28 N4 O26"
_cell_length_a       7.61402
_cell_length_b       12.1199
_cell_length_c       12.12
_cell_angle_alpha    74.8897
_cell_angle_beta     73.511
_cell_angle_gamma    73.5107

_space_group_name_H-M_alt    "P 1"
_space_group_IT_number       1

loop_
  _space_group_symop_operation_xyz
  'x, y, z'

loop_
  _atom_site_type_symbol
  _atom_site_label
  _atom_site_symmetry_multiplicity
  _atom_site_fract_x
  _atom_site_fract_y
  _atom_site_fract_z
  _atom_site_occupancy
  Rb  Rb1       1.0  0.03963  0.63119  0.26362  1.0000
  Rb  Rb2       1.0  0.46037  0.73638  0.36880  1.0000
  Rb  Rb3       1.0  0.96037  0.36881  0.73638  1.0000
  Rb  Rb4       1.0  0.53963  0.26362  0.63120  1.0000
  U   U1        1.0  0.00000  0.50000  0.00000  1.0000
  U   U2        1.0  0.50001  0.00000  0.50000  1.0000
  H   H1        1.0  0.43161  0.50216  0.25310  1.0000
  H   H2        1.0  0.06839  0.74690  0.49785  1.0000
  H   H3        1.0  0.56839  0.49785  0.74691  1.0000
  H   H4        1.0  0.93161  0.25310  0.50215  1.0000
  H   H5        1.0  0.57211  0.58556  0.18646  1.0000
  H   H6        1.0  0.92788  0.81354  0.41444  1.0000
  H   H7        1.0  0.42789  0.41444  0.81354  1.0000
  H   H8        1.0  0.07211  0.18646  0.58556  1.0000
  H   H9        1.0  0.75496  0.47334  0.44092  1.0000
  H   H10       1.0  0.74505  0.55908  0.52667  1.0000
  H   H11       1.0  0.24505  0.52667  0.55908  1.0000
  H   H12       1.0  0.25496  0.44092  0.47333  1.0000
  H   H13       1.0  0.95188  0.11157  0.38566  1.0000
  H   H14       1.0  0.54812  0.61434  0.88843  1.0000
  H   H15       1.0  0.04811  0.88843  0.61434  1.0000
  H   H16       1.0  0.45188  0.38566  0.11157  1.0000
  H   H17       1.0  0.17425  0.95291  0.28491  1.0000
  H   H18       1.0  0.32573  0.71509  0.04708  1.0000
  H   H19       1.0  0.82573  0.04709  0.71509  1.0000
  H   H20       1.0  0.67428  0.28491  0.95292  1.0000
  H   H21       1.0  0.34986  0.00925  0.07506  1.0000
  H   H22       1.0  0.15013  0.92494  0.99074  1.0000
  H   H23       1.0  0.65014  0.99075  0.92493  1.0000
  H   H24       1.0  0.84987  0.07506  0.00926  1.0000
  C   C1        1.0  0.99586  0.24647  0.23111  1.0000
  C   C2        1.0  0.50414  0.76889  0.75353  1.0000
  C   C3        1.0  0.00413  0.75353  0.76889  1.0000
  C   C4        1.0  0.49586  0.23111  0.24647  1.0000
  C   C5        1.0  0.02652  0.13138  0.29439  1.0000
  C   C6        1.0  0.47348  0.70561  0.86861  1.0000
  C   C7        1.0  0.97348  0.86862  0.70561  1.0000
  C   C8        1.0  0.52652  0.29439  0.13138  1.0000
  C   C9        1.0  0.15238  0.04366  0.23779  1.0000
  C   C10       1.0  0.34761  0.76221  0.95634  1.0000
  C   C11       1.0  0.84762  0.95634  0.76221  1.0000
  C   C12       1.0  0.65239  0.23779  0.04366  1.0000
  C   C13       1.0  0.24592  0.07430  0.12137  1.0000
  C   C14       1.0  0.25407  0.87863  0.92569  1.0000
  C   C15       1.0  0.75408  0.92569  0.87863  1.0000
  C   C16       1.0  0.74593  0.12137  0.07431  1.0000
  C   C17       1.0  0.20444  0.19147  0.06442  1.0000
  C   C18       1.0  0.29556  0.93558  0.80853  1.0000
  C   C19       1.0  0.79556  0.80853  0.93558  1.0000
  C   C20       1.0  0.70444  0.06442  0.19147  1.0000
  C   C21       1.0  0.87211  0.34957  0.28239  1.0000
  C   C22       1.0  0.62790  0.71761  0.65043  1.0000
  C   C23       1.0  0.12789  0.65043  0.71761  1.0000
  C   C24       1.0  0.37210  0.28239  0.34957  1.0000
  C   C25       1.0  0.29524  0.23528  0.93976  1.0000
  C   C26       1.0  0.20476  0.06025  0.76472  1.0000
  C   C27       1.0  0.70476  0.76472  0.06025  1.0000
  C   C28       1.0  0.79524  0.93975  0.23528  1.0000
  N   N1        1.0  0.08046  0.27577  0.11759  1.0000
  N   N2        1.0  0.41955  0.88241  0.72423  1.0000
  N   N3        1.0  0.91954  0.72423  0.88241  1.0000
  N   N4        1.0  0.58045  0.11759  0.27577  1.0000
  O   O1        1.0  0.85620  0.44736  0.20884  1.0000
  O   O2        1.0  0.64381  0.79116  0.55264  1.0000
  O   O3        1.0  0.14381  0.55264  0.79116  1.0000
  O   O4        1.0  0.35619  0.20884  0.44736  1.0000
  O   O5        1.0  0.20361  0.66276  0.60953  1.0000
  O   O6        1.0  0.29639  0.39047  0.33724  1.0000
  O   O7        1.0  0.79639  0.33725  0.39046  1.0000
  O   O8        1.0  0.70362  0.60954  0.66276  1.0000
  O   O9        1.0  0.22749  0.34600  0.90169  1.0000
  O   O10       1.0  0.27252  0.09832  0.65400  1.0000
  O   O11       1.0  0.77252  0.65400  0.09831  1.0000
  O   O12       1.0  0.72748  0.90168  0.34600  1.0000
  O   O13       1.0  0.57584  0.83013  0.11837  1.0000
  O   O14       1.0  0.92416  0.88162  0.16988  1.0000
  O   O15       1.0  0.42418  0.16986  0.88163  1.0000
  O   O16       1.0  0.07584  0.11838  0.83013  1.0000
  O   O17       1.0  0.18880  0.53124  0.04209  1.0000
  O   O18       1.0  0.31119  0.95791  0.46877  1.0000
  O   O19       1.0  0.81119  0.46876  0.95791  1.0000
  O   O20       1.0  0.68881  0.04210  0.53122  1.0000
  O   O21       1.0  0.43919  0.58466  0.22327  1.0000
  O   O22       1.0  0.06081  0.77673  0.41535  1.0000
  O   O23       1.0  0.56082  0.41534  0.77673  1.0000
  O   O24       1.0  0.93919  0.22327  0.58465  1.0000
  O   O25       1.0  0.75000  0.55419  0.44581  1.0000
  O   O26       1.0  0.25000  0.44581  0.55419  1.0000
