data_image0
_chemical_formula_structural       Cs2UH14C14N2O14
_chemical_formula_sum              "Cs2 U1 H14 C14 N2 O14"
_cell_length_a       6.94571
_cell_length_b       8.45205
_cell_length_c       10.7751
_cell_angle_alpha    99.8882
_cell_angle_beta     105.65
_cell_angle_gamma    110.267

_space_group_name_H-M_alt    "P 1"
_space_group_IT_number       1

loop_
  _space_group_symop_operation_xyz
  'x, y, z'

loop_
  _atom_site_type_symbol
  _atom_site_label
  _atom_site_symmetry_multiplicity
  _atom_site_fract_x
  _atom_site_fract_y
  _atom_site_fract_z
  _atom_site_occupancy
  Cs  Cs1       1.0  0.06193  0.26373  0.42827  1.0000
  Cs  Cs2       1.0  0.93808  0.73627  0.57173  1.0000
  U   U1        1.0  0.50001  0.99999  0.00001  1.0000
  H   H1        1.0  0.41555  0.73015  0.65218  1.0000
  H   H2        1.0  0.58445  0.26990  0.34782  1.0000
  H   H3        1.0  0.45685  0.74585  0.51699  1.0000
  H   H4        1.0  0.54316  0.25416  0.48301  1.0000
  H   H5        1.0  0.95016  0.21237  0.68375  1.0000
  H   H6        1.0  0.04987  0.78764  0.31625  1.0000
  H   H7        1.0  0.76086  0.03783  0.57578  1.0000
  H   H8        1.0  0.23918  0.96217  0.42423  1.0000
  H   H9        1.0  0.91467  0.74945  0.10783  1.0000
  H   H10       1.0  0.08530  0.25055  0.89218  1.0000
  H   H11       1.0  0.81672  0.76266  0.87151  1.0000
  H   H12       1.0  0.18327  0.23734  0.12848  1.0000
  H   H13       1.0  0.60512  0.47550  0.68127  1.0000
  H   H14       1.0  0.39489  0.52449  0.31871  1.0000
  C   C1        1.0  0.75126  0.46385  0.04673  1.0000
  C   C2        1.0  0.24872  0.53616  0.95327  1.0000
  C   C3        1.0  0.82209  0.62861  0.02404  1.0000
  C   C4        1.0  0.17789  0.37140  0.97596  1.0000
  C   C5        1.0  0.76847  0.63504  0.89102  1.0000
  C   C6        1.0  0.23154  0.36497  0.10897  1.0000
  C   C7        1.0  0.65311  0.47746  0.78661  1.0000
  C   C8        1.0  0.34690  0.52254  0.21339  1.0000
  C   C9        1.0  0.59465  0.31829  0.81852  1.0000
  C   C10       1.0  0.40536  0.68171  0.18147  1.0000
  C   C11       1.0  0.78968  0.43748  0.18363  1.0000
  C   C12       1.0  0.21031  0.56252  0.81639  1.0000
  C   C13       1.0  0.47592  0.14075  0.71499  1.0000
  C   C14       1.0  0.52411  0.85924  0.28500  1.0000
  N   N1        1.0  0.63874  0.31164  0.94606  1.0000
  N   N2        1.0  0.36127  0.68836  0.05393  1.0000
  O   O1        1.0  0.68577  0.27818  0.18314  1.0000
  O   O2        1.0  0.31415  0.72185  0.81688  1.0000
  O   O3        1.0  0.91567  0.56230  0.28835  1.0000
  O   O4        1.0  0.08431  0.43769  0.71167  1.0000
  O   O5        1.0  0.42854  0.01015  0.76352  1.0000
  O   O6        1.0  0.57144  0.98984  0.23647  1.0000
  O   O7        1.0  0.42936  0.12929  0.59155  1.0000
  O   O8        1.0  0.57066  0.87067  0.40844  1.0000
  O   O9        1.0  0.76584  0.00079  0.01534  1.0000
  O   O10       1.0  0.23415  0.99919  0.98469  1.0000
  O   O11       1.0  0.42191  0.66369  0.57039  1.0000
  O   O12       1.0  0.57805  0.33633  0.42960  1.0000
  O   O13       1.0  0.89550  0.08232  0.65560  1.0000
  O   O14       1.0  0.10454  0.91768  0.34440  1.0000
