data_image0
_chemical_formula_structural       Dy2P2H24C26N2O22
_chemical_formula_sum              "Dy2 P2 H24 C26 N2 O22"
_cell_length_a       7.26338
_cell_length_b       9.55439
_cell_length_c       12.3125
_cell_angle_alpha    68.6571
_cell_angle_beta     91.7024
_cell_angle_gamma    88.9063

_space_group_name_H-M_alt    "P 1"
_space_group_IT_number       1

loop_
  _space_group_symop_operation_xyz
  'x, y, z'

loop_
  _atom_site_type_symbol
  _atom_site_label
  _atom_site_symmetry_multiplicity
  _atom_site_fract_x
  _atom_site_fract_y
  _atom_site_fract_z
  _atom_site_occupancy
  Dy  Dy1       1.0  0.74535  0.69983  0.59107  1.0000
  Dy  Dy2       1.0  0.25463  0.30018  0.40893  1.0000
  P   P1        1.0  0.71424  0.48239  0.89226  1.0000
  P   P2        1.0  0.28575  0.51760  0.10774  1.0000
  H   H1        1.0  0.12044  0.72880  0.65767  1.0000
  H   H2        1.0  0.87953  0.27119  0.34232  1.0000
  H   H3        1.0  0.10055  0.90126  0.58630  1.0000
  H   H4        1.0  0.89944  0.09874  0.41369  1.0000
  H   H5        1.0  0.64152  0.53113  0.04986  1.0000
  H   H6        1.0  0.35847  0.46887  0.95013  1.0000
  H   H7        1.0  0.77131  0.72752  0.29203  1.0000
  H   H8        1.0  0.22871  0.27248  0.70797  1.0000
  H   H9        1.0  0.58358  0.74330  0.04234  1.0000
  H   H10       1.0  0.41642  0.25670  0.95766  1.0000
  H   H11       1.0  0.51541  0.79102  0.84697  1.0000
  H   H12       1.0  0.48460  0.20898  0.15302  1.0000
  H   H13       1.0  0.58933  0.04391  0.69558  1.0000
  H   H14       1.0  0.41069  0.95608  0.30442  1.0000
  H   H15       1.0  0.73530  0.23190  0.75775  1.0000
  H   H16       1.0  0.26470  0.76810  0.24225  1.0000
  H   H17       1.0  0.96415  0.21994  0.13690  1.0000
  H   H18       1.0  0.03586  0.78006  0.86310  1.0000
  H   H19       1.0  0.88980  0.96700  0.27409  1.0000
  H   H20       1.0  0.11021  0.03299  0.72590  1.0000
  H   H21       1.0  0.91874  0.34918  0.81342  1.0000
  H   H22       1.0  0.08126  0.65081  0.18658  1.0000
  H   H23       1.0  0.01831  0.38594  0.93193  1.0000
  H   H24       1.0  0.98169  0.61406  0.06807  1.0000
  C   C1        1.0  0.58708  0.87623  0.86937  1.0000
  C   C2        1.0  0.41294  0.12377  0.13062  1.0000
  C   C3        1.0  0.62981  0.01545  0.78679  1.0000
  C   C4        1.0  0.37020  0.98454  0.21321  1.0000
  C   C5        1.0  0.71354  0.12067  0.82250  1.0000
  C   C6        1.0  0.28647  0.87933  0.17750  1.0000
  C   C7        1.0  0.76407  0.08680  0.94155  1.0000
  C   C8        1.0  0.23594  0.91320  0.05844  1.0000
  C   C9        1.0  0.85309  0.18950  0.98411  1.0000
  C   C10       1.0  0.14691  0.81050  0.01589  1.0000
  C   C11       1.0  0.89509  0.14306  0.10294  1.0000
  C   C12       1.0  0.10491  0.85694  0.89706  1.0000
  C   C13       1.0  0.85354  0.99921  0.18161  1.0000
  C   C14       1.0  0.14648  0.00079  0.81838  1.0000
  C   C15       1.0  0.76603  0.89682  0.14297  1.0000
  C   C16       1.0  0.23398  0.10319  0.85703  1.0000
  C   C17       1.0  0.72069  0.94196  0.02169  1.0000
  C   C18       1.0  0.27931  0.05803  0.97831  1.0000
  C   C19       1.0  0.89438  0.34393  0.90209  1.0000
  C   C20       1.0  0.10562  0.65606  0.09791  1.0000
  C   C21       1.0  0.54392  0.42903  0.54800  1.0000
  C   C22       1.0  0.45605  0.57097  0.45199  1.0000
  C   C23       1.0  0.95896  0.54028  0.43753  1.0000
  C   C24       1.0  0.04106  0.45972  0.56249  1.0000
  C   C25       1.0  0.57494  0.03975  0.45661  1.0000
  C   C26       1.0  0.42505  0.96025  0.54338  1.0000
  N   N1        1.0  0.63080  0.84446  0.98184  1.0000
  N   N2        1.0  0.36921  0.15554  0.01816  1.0000
  O   O1        1.0  0.74554  0.62167  0.78304  1.0000
  O   O2        1.0  0.25445  0.37832  0.21696  1.0000
  O   O3        1.0  0.02801  0.80933  0.62164  1.0000
  O   O4        1.0  0.97196  0.19068  0.37836  1.0000
  O   O5        1.0  0.75616  0.51927  0.00621  1.0000
  O   O6        1.0  0.24384  0.48073  0.99379  1.0000
  O   O7        1.0  0.52117  0.42118  0.89598  1.0000
  O   O8        1.0  0.47883  0.57882  0.10402  1.0000
  O   O9        1.0  0.71862  0.75800  0.20958  1.0000
  O   O10       1.0  0.28140  0.24200  0.79042  1.0000
  O   O11       1.0  0.65296  0.45260  0.62148  1.0000
  O   O12       1.0  0.34701  0.54740  0.37852  1.0000
  O   O13       1.0  0.50105  0.30303  0.54462  1.0000
  O   O14       1.0  0.49893  0.69698  0.45536  1.0000
  O   O15       1.0  0.86792  0.66290  0.42119  1.0000
  O   O16       1.0  0.13210  0.33711  0.57882  1.0000
  O   O17       1.0  0.98591  0.48093  0.36351  1.0000
  O   O18       1.0  0.01411  0.51908  0.63651  1.0000
  O   O19       1.0  0.72799  0.96569  0.46882  1.0000
  O   O20       1.0  0.27202  0.03431  0.53118  1.0000
  O   O21       1.0  0.53512  0.16827  0.38234  1.0000
  O   O22       1.0  0.46486  0.83171  0.61765  1.0000
