data_image0
_chemical_formula_structural       Gd2P2H24C26N2O22
_chemical_formula_sum              "Gd2 P2 H24 C26 N2 O22"
_cell_length_a       7.30174
_cell_length_b       9.58421
_cell_length_c       12.314
_cell_angle_alpha    68.7362
_cell_angle_beta     91.9105
_cell_angle_gamma    89.2059

_space_group_name_H-M_alt    "P 1"
_space_group_IT_number       1

loop_
  _space_group_symop_operation_xyz
  'x, y, z'

loop_
  _atom_site_type_symbol
  _atom_site_label
  _atom_site_symmetry_multiplicity
  _atom_site_fract_x
  _atom_site_fract_y
  _atom_site_fract_z
  _atom_site_occupancy
  Gd  Gd1       1.0  0.74648  0.69997  0.59294  1.0000
  Gd  Gd2       1.0  0.25353  0.30004  0.40706  1.0000
  P   P1        1.0  0.71448  0.48038  0.89542  1.0000
  P   P2        1.0  0.28552  0.51961  0.10458  1.0000
  H   H1        1.0  0.12307  0.72966  0.65872  1.0000
  H   H2        1.0  0.87695  0.27034  0.34128  1.0000
  H   H3        1.0  0.10458  0.90116  0.58681  1.0000
  H   H4        1.0  0.89545  0.09885  0.41318  1.0000
  H   H5        1.0  0.64063  0.52913  0.05261  1.0000
  H   H6        1.0  0.35937  0.47087  0.94738  1.0000
  H   H7        1.0  0.77514  0.72631  0.29154  1.0000
  H   H8        1.0  0.22484  0.27368  0.70846  1.0000
  H   H9        1.0  0.58370  0.74351  0.04168  1.0000
  H   H10       1.0  0.41629  0.25649  0.95833  1.0000
  H   H11       1.0  0.51292  0.79267  0.84642  1.0000
  H   H12       1.0  0.48708  0.20732  0.15359  1.0000
  H   H13       1.0  0.58376  0.04656  0.69624  1.0000
  H   H14       1.0  0.41623  0.95343  0.30376  1.0000
  H   H15       1.0  0.73075  0.23293  0.75954  1.0000
  H   H16       1.0  0.26925  0.76706  0.24046  1.0000
  H   H17       1.0  0.96698  0.21720  0.13851  1.0000
  H   H18       1.0  0.03303  0.78279  0.86149  1.0000
  H   H19       1.0  0.89288  0.96484  0.27454  1.0000
  H   H20       1.0  0.10712  0.03515  0.72546  1.0000
  H   H21       1.0  0.91605  0.34923  0.81507  1.0000
  H   H22       1.0  0.08395  0.65076  0.18493  1.0000
  H   H23       1.0  0.01721  0.38509  0.93366  1.0000
  H   H24       1.0  0.98279  0.61491  0.06634  1.0000
  C   C1        1.0  0.58459  0.87758  0.86918  1.0000
  C   C2        1.0  0.41539  0.12242  0.13082  1.0000
  C   C3        1.0  0.62564  0.01718  0.78730  1.0000
  C   C4        1.0  0.37434  0.98282  0.21270  1.0000
  C   C5        1.0  0.71015  0.12151  0.82365  1.0000
  C   C6        1.0  0.28984  0.87849  0.17635  1.0000
  C   C7        1.0  0.76288  0.08670  0.94246  1.0000
  C   C8        1.0  0.23712  0.91330  0.05754  1.0000
  C   C9        1.0  0.85277  0.18864  0.98541  1.0000
  C   C10       1.0  0.14723  0.81136  0.01460  1.0000
  C   C11       1.0  0.89702  0.14127  0.10400  1.0000
  C   C12       1.0  0.10298  0.85872  0.89600  1.0000
  C   C13       1.0  0.85590  0.99755  0.18207  1.0000
  C   C14       1.0  0.14409  0.00245  0.81793  1.0000
  C   C15       1.0  0.76808  0.89566  0.14302  1.0000
  C   C16       1.0  0.23191  0.10434  0.85697  1.0000
  C   C17       1.0  0.72083  0.94159  0.02194  1.0000
  C   C18       1.0  0.27917  0.05840  0.97806  1.0000
  C   C19       1.0  0.89317  0.34308  0.90410  1.0000
  C   C20       1.0  0.10683  0.65691  0.09590  1.0000
  C   C21       1.0  0.54348  0.42909  0.54790  1.0000
  C   C22       1.0  0.45652  0.57091  0.45210  1.0000
  C   C23       1.0  0.95928  0.54038  0.43749  1.0000
  C   C24       1.0  0.04071  0.45962  0.56250  1.0000
  C   C25       1.0  0.57482  0.03996  0.45681  1.0000
  C   C26       1.0  0.42517  0.96004  0.54319  1.0000
  N   N1        1.0  0.63028  0.84488  0.98157  1.0000
  N   N2        1.0  0.36971  0.15512  0.01843  1.0000
  O   O1        1.0  0.74679  0.62062  0.78761  1.0000
  O   O2        1.0  0.25321  0.37938  0.21238  1.0000
  O   O3        1.0  0.03152  0.80993  0.62293  1.0000
  O   O4        1.0  0.96850  0.19008  0.37709  1.0000
  O   O5        1.0  0.75534  0.51365  0.01106  1.0000
  O   O6        1.0  0.24467  0.48635  0.98893  1.0000
  O   O7        1.0  0.52194  0.41992  0.89671  1.0000
  O   O8        1.0  0.47806  0.58008  0.10328  1.0000
  O   O9        1.0  0.72202  0.75681  0.20917  1.0000
  O   O10       1.0  0.27798  0.24319  0.79083  1.0000
  O   O11       1.0  0.65224  0.45193  0.62184  1.0000
  O   O12       1.0  0.34781  0.54807  0.37817  1.0000
  O   O13       1.0  0.50026  0.30374  0.54390  1.0000
  O   O14       1.0  0.49975  0.69627  0.45610  1.0000
  O   O15       1.0  0.86938  0.66247  0.42128  1.0000
  O   O16       1.0  0.13059  0.33754  0.57872  1.0000
  O   O17       1.0  0.98551  0.48176  0.36312  1.0000
  O   O18       1.0  0.01447  0.51827  0.63689  1.0000
  O   O19       1.0  0.72773  0.96738  0.46991  1.0000
  O   O20       1.0  0.27228  0.03261  0.53009  1.0000
  O   O21       1.0  0.53500  0.16736  0.38196  1.0000
  O   O22       1.0  0.46500  0.83264  0.61805  1.0000
