data_image0
_chemical_formula_structural       Tb2P2H24C26N2O22
_chemical_formula_sum              "Tb2 P2 H24 C26 N2 O22"
_cell_length_a       7.28465
_cell_length_b       9.5642
_cell_length_c       12.315
_cell_angle_alpha    68.7016
_cell_angle_beta     91.7865
_cell_angle_gamma    89.0929

_space_group_name_H-M_alt    "P 1"
_space_group_IT_number       1

loop_
  _space_group_symop_operation_xyz
  'x, y, z'

loop_
  _atom_site_type_symbol
  _atom_site_label
  _atom_site_symmetry_multiplicity
  _atom_site_fract_x
  _atom_site_fract_y
  _atom_site_fract_z
  _atom_site_occupancy
  Tb  Tb1       1.0  0.74562  0.70016  0.59172  1.0000
  Tb  Tb2       1.0  0.25438  0.29983  0.40828  1.0000
  P   P1        1.0  0.71422  0.48149  0.89356  1.0000
  P   P2        1.0  0.28579  0.51851  0.10644  1.0000
  H   H1        1.0  0.12042  0.72916  0.65806  1.0000
  H   H2        1.0  0.87956  0.27084  0.34194  1.0000
  H   H3        1.0  0.10240  0.90141  0.58645  1.0000
  H   H4        1.0  0.89758  0.09859  0.41354  1.0000
  H   H5        1.0  0.64098  0.53047  0.05090  1.0000
  H   H6        1.0  0.35903  0.46953  0.94909  1.0000
  H   H7        1.0  0.77401  0.72682  0.29156  1.0000
  H   H8        1.0  0.22598  0.27317  0.70844  1.0000
  H   H9        1.0  0.58323  0.74315  0.04223  1.0000
  H   H10       1.0  0.41677  0.25686  0.95776  1.0000
  H   H11       1.0  0.51274  0.79192  0.84700  1.0000
  H   H12       1.0  0.48725  0.20809  0.15299  1.0000
  H   H13       1.0  0.58502  0.04559  0.69621  1.0000
  H   H14       1.0  0.41497  0.95443  0.30378  1.0000
  H   H15       1.0  0.73228  0.23277  0.75870  1.0000
  H   H16       1.0  0.26773  0.76724  0.24130  1.0000
  H   H17       1.0  0.96670  0.21853  0.13742  1.0000
  H   H18       1.0  0.03330  0.78146  0.86259  1.0000
  H   H19       1.0  0.89242  0.96588  0.27404  1.0000
  H   H20       1.0  0.10757  0.03411  0.72596  1.0000
  H   H21       1.0  0.91679  0.34941  0.81392  1.0000
  H   H22       1.0  0.08324  0.65060  0.18609  1.0000
  H   H23       1.0  0.01745  0.38599  0.93237  1.0000
  H   H24       1.0  0.98255  0.61400  0.06765  1.0000
  C   C1        1.0  0.58507  0.87689  0.86945  1.0000
  C   C2        1.0  0.41495  0.12312  0.13054  1.0000
  C   C3        1.0  0.62685  0.01645  0.78722  1.0000
  C   C4        1.0  0.37316  0.98356  0.21277  1.0000
  C   C5        1.0  0.71116  0.12132  0.82313  1.0000
  C   C6        1.0  0.28885  0.87870  0.17687  1.0000
  C   C7        1.0  0.76311  0.08685  0.94197  1.0000
  C   C8        1.0  0.23689  0.91316  0.05803  1.0000
  C   C9        1.0  0.85311  0.18912  0.98459  1.0000
  C   C10       1.0  0.14691  0.81087  0.01542  1.0000
  C   C11       1.0  0.89666  0.14223  0.10324  1.0000
  C   C12       1.0  0.10336  0.85776  0.89677  1.0000
  C   C13       1.0  0.85539  0.99829  0.18164  1.0000
  C   C14       1.0  0.14459  0.00170  0.81836  1.0000
  C   C15       1.0  0.76751  0.89613  0.14287  1.0000
  C   C16       1.0  0.23247  0.10387  0.85713  1.0000
  C   C17       1.0  0.72057  0.94170  0.02180  1.0000
  C   C18       1.0  0.27942  0.05830  0.97820  1.0000
  C   C19       1.0  0.89361  0.34370  0.90279  1.0000
  C   C20       1.0  0.10640  0.65630  0.09721  1.0000
  C   C21       1.0  0.54346  0.42905  0.54804  1.0000
  C   C22       1.0  0.45656  0.57095  0.45194  1.0000
  C   C23       1.0  0.95926  0.54026  0.43749  1.0000
  C   C24       1.0  0.04076  0.45973  0.56252  1.0000
  C   C25       1.0  0.57468  0.03989  0.45659  1.0000
  C   C26       1.0  0.42530  0.96011  0.54340  1.0000
  N   N1        1.0  0.63023  0.84447  0.98182  1.0000
  N   N2        1.0  0.36978  0.15554  0.01817  1.0000
  O   O1        1.0  0.74616  0.62119  0.78504  1.0000
  O   O2        1.0  0.25385  0.37881  0.21497  1.0000
  O   O3        1.0  0.02907  0.81002  0.62209  1.0000
  O   O4        1.0  0.97091  0.18998  0.37791  1.0000
  O   O5        1.0  0.75548  0.51707  0.00814  1.0000
  O   O6        1.0  0.24452  0.48294  0.99186  1.0000
  O   O7        1.0  0.52148  0.42040  0.89636  1.0000
  O   O8        1.0  0.47853  0.57960  0.10366  1.0000
  O   O9        1.0  0.72107  0.75712  0.20926  1.0000
  O   O10       1.0  0.27893  0.24287  0.79074  1.0000
  O   O11       1.0  0.65221  0.45238  0.62171  1.0000
  O   O12       1.0  0.34776  0.54763  0.37830  1.0000
  O   O13       1.0  0.50026  0.30325  0.54452  1.0000
  O   O14       1.0  0.49974  0.69674  0.45549  1.0000
  O   O15       1.0  0.86903  0.66279  0.42110  1.0000
  O   O16       1.0  0.13095  0.33721  0.57889  1.0000
  O   O17       1.0  0.98604  0.48094  0.36348  1.0000
  O   O18       1.0  0.01395  0.51905  0.63652  1.0000
  O   O19       1.0  0.72761  0.96672  0.46895  1.0000
  O   O20       1.0  0.27238  0.03327  0.53105  1.0000
  O   O21       1.0  0.53475  0.16783  0.38205  1.0000
  O   O22       1.0  0.46525  0.83217  0.61794  1.0000
