data_image0
_chemical_formula_structural       Li4H40C24N8Cl4O8
_chemical_formula_sum              "Li4 H40 C24 N8 Cl4 O8"
_cell_length_a       8.05228
_cell_length_b       9.05558
_cell_length_c       12.0443
_cell_angle_alpha    90
_cell_angle_beta     89.9999
_cell_angle_gamma    102.083

_space_group_name_H-M_alt    "P 1"
_space_group_IT_number       1

loop_
  _space_group_symop_operation_xyz
  'x, y, z'

loop_
  _atom_site_type_symbol
  _atom_site_label
  _atom_site_symmetry_multiplicity
  _atom_site_fract_x
  _atom_site_fract_y
  _atom_site_fract_z
  _atom_site_occupancy
  Li  Li1       1.0  0.55179  0.10908  0.59283  1.0000
  Li  Li2       1.0  0.94822  0.39093  0.09283  1.0000
  Li  Li3       1.0  0.44822  0.89093  0.40718  1.0000
  Li  Li4       1.0  0.05178  0.60907  0.90718  1.0000
  H   H1        1.0  0.36556  0.89872  0.94824  1.0000
  H   H2        1.0  0.13443  0.60128  0.44824  1.0000
  H   H3        1.0  0.63444  0.10129  0.05176  1.0000
  H   H4        1.0  0.86556  0.39872  0.55176  1.0000
  H   H5        1.0  0.36689  0.92713  0.80226  1.0000
  H   H6        1.0  0.13311  0.57287  0.30226  1.0000
  H   H7        1.0  0.63311  0.07287  0.19774  1.0000
  H   H8        1.0  0.86689  0.42713  0.69774  1.0000
  H   H9        1.0  0.38685  0.16646  0.98402  1.0000
  H   H10       1.0  0.11315  0.33354  0.48402  1.0000
  H   H11       1.0  0.61315  0.83354  0.01598  1.0000
  H   H12       1.0  0.88685  0.66646  0.51598  1.0000
  H   H13       1.0  0.49332  0.18544  0.85394  1.0000
  H   H14       1.0  0.00668  0.31456  0.35394  1.0000
  H   H15       1.0  0.50668  0.81456  0.14606  1.0000
  H   H16       1.0  0.99332  0.68544  0.64606  1.0000
  H   H17       1.0  0.19256  0.29056  0.89423  1.0000
  H   H18       1.0  0.30744  0.20944  0.39423  1.0000
  H   H19       1.0  0.80744  0.70944  0.10577  1.0000
  H   H20       1.0  0.69256  0.79056  0.60577  1.0000
  H   H21       1.0  0.24414  0.23056  0.75978  1.0000
  H   H22       1.0  0.25586  0.26943  0.25978  1.0000
  H   H23       1.0  0.75586  0.76944  0.24022  1.0000
  H   H24       1.0  0.74414  0.73056  0.74022  1.0000
  H   H25       1.0  0.82866  0.97631  0.88904  1.0000
  H   H26       1.0  0.67134  0.52369  0.38904  1.0000
  H   H27       1.0  0.17134  0.02369  0.11097  1.0000
  H   H28       1.0  0.32866  0.47631  0.61096  1.0000
  H   H29       1.0  0.88295  0.17751  0.88296  1.0000
  H   H30       1.0  0.61705  0.32249  0.38296  1.0000
  H   H31       1.0  0.11705  0.82249  0.11704  1.0000
  H   H32       1.0  0.38295  0.67751  0.61704  1.0000
  H   H33       1.0  0.06050  0.04022  0.65046  1.0000
  H   H34       1.0  0.43949  0.45978  0.15046  1.0000
  H   H35       1.0  0.93949  0.95978  0.34954  1.0000
  H   H36       1.0  0.56051  0.54022  0.84954  1.0000
  H   H37       1.0  0.88806  0.05523  0.56381  1.0000
  H   H38       1.0  0.61194  0.44477  0.06381  1.0000
  H   H39       1.0  0.11194  0.94477  0.43619  1.0000
  H   H40       1.0  0.38806  0.55523  0.93619  1.0000
  C   C1        1.0  0.13024  0.93343  0.87760  1.0000
  C   C2        1.0  0.36976  0.56657  0.37760  1.0000
  C   C3        1.0  0.86976  0.06657  0.12240  1.0000
  C   C4        1.0  0.63024  0.43343  0.62240  1.0000
  C   C5        1.0  0.32202  0.96432  0.88187  1.0000
  C   C6        1.0  0.17798  0.53568  0.38187  1.0000
  C   C7        1.0  0.67798  0.03568  0.11813  1.0000
  C   C8        1.0  0.82202  0.46432  0.61813  1.0000
  C   C9        1.0  0.37350  0.13664  0.89552  1.0000
  C   C10       1.0  0.12650  0.36336  0.39552  1.0000
  C   C11       1.0  0.62650  0.86337  0.10448  1.0000
  C   C12       1.0  0.87349  0.63664  0.60448  1.0000
  C   C13       1.0  0.22271  0.19566  0.84718  1.0000
  C   C14       1.0  0.27729  0.30434  0.34718  1.0000
  C   C15       1.0  0.77729  0.80434  0.15282  1.0000
  C   C16       1.0  0.72271  0.69566  0.65282  1.0000
  C   C17       1.0  0.90588  0.07299  0.84485  1.0000
  C   C18       1.0  0.59412  0.42701  0.34485  1.0000
  C   C19       1.0  0.09412  0.92701  0.15515  1.0000
  C   C20       1.0  0.40588  0.57299  0.65515  1.0000
  C   C21       1.0  0.83697  0.06770  0.72734  1.0000
  C   C22       1.0  0.66303  0.43230  0.22734  1.0000
  C   C23       1.0  0.16303  0.93230  0.27266  1.0000
  C   C24       1.0  0.33697  0.56770  0.77266  1.0000
  N   N1        1.0  0.08153  0.06478  0.85615  1.0000
  N   N2        1.0  0.41847  0.43522  0.35615  1.0000
  N   N3        1.0  0.91847  0.93522  0.14385  1.0000
  N   N4        1.0  0.58153  0.56478  0.64385  1.0000
  N   N5        1.0  0.94078  0.05977  0.64186  1.0000
  N   N6        1.0  0.55922  0.44023  0.14186  1.0000
  N   N7        1.0  0.05922  0.94023  0.35814  1.0000
  N   N8        1.0  0.44078  0.55977  0.85814  1.0000
  Cl  Cl1       1.0  0.29267  0.93731  0.57486  1.0000
  Cl  Cl2       1.0  0.20732  0.56269  0.07486  1.0000
  Cl  Cl3       1.0  0.70733  0.06269  0.42514  1.0000
  Cl  Cl4       1.0  0.79267  0.43731  0.92514  1.0000
  O   O1        1.0  0.68389  0.07260  0.71567  1.0000
  O   O2        1.0  0.81611  0.42740  0.21567  1.0000
  O   O3        1.0  0.31611  0.92740  0.28433  1.0000
  O   O4        1.0  0.18389  0.57260  0.78433  1.0000
  O   O5        1.0  0.02761  0.81045  0.89054  1.0000
  O   O6        1.0  0.47238  0.68955  0.39054  1.0000
  O   O7        1.0  0.97239  0.18955  0.10946  1.0000
  O   O8        1.0  0.52761  0.31045  0.60945  1.0000
