data_image0
_chemical_formula_structural       U4H8C4O12F12
_chemical_formula_sum              "U4 H8 C4 O12 F12"
_cell_length_a       5.99593
_cell_length_b       8.61323
_cell_length_c       9.22866
_cell_angle_alpha    95.6371
_cell_angle_beta     108.948
_cell_angle_gamma    90.0026

_space_group_name_H-M_alt    "P 1"
_space_group_IT_number       1

loop_
  _space_group_symop_operation_xyz
  'x, y, z'

loop_
  _atom_site_type_symbol
  _atom_site_label
  _atom_site_symmetry_multiplicity
  _atom_site_fract_x
  _atom_site_fract_y
  _atom_site_fract_z
  _atom_site_occupancy
  U   U1        1.0  0.29136  0.63157  0.34406  1.0000
  U   U2        1.0  0.94722  0.86840  0.65593  1.0000
  U   U3        1.0  0.70865  0.36843  0.65595  1.0000
  U   U4        1.0  0.05277  0.13159  0.34407  1.0000
  H   H1        1.0  0.64408  0.69326  0.17117  1.0000
  H   H2        1.0  0.47273  0.80666  0.82886  1.0000
  H   H3        1.0  0.35595  0.30673  0.82882  1.0000
  H   H4        1.0  0.52726  0.19334  0.17114  1.0000
  H   H5        1.0  0.61715  0.84801  0.26987  1.0000
  H   H6        1.0  0.34710  0.65194  0.73012  1.0000
  H   H7        1.0  0.38287  0.15200  0.73013  1.0000
  H   H8        1.0  0.65289  0.34805  0.26988  1.0000
  C   C1        1.0  0.11155  0.46056  0.99266  1.0000
  C   C2        1.0  0.11884  0.03945  0.00727  1.0000
  C   C3        1.0  0.88846  0.53944  0.00733  1.0000
  C   C4        1.0  0.88114  0.96055  0.99274  1.0000
  O   O1        1.0  0.29926  0.48618  0.10426  1.0000
  O   O2        1.0  0.19484  0.01380  0.89560  1.0000
  O   O3        1.0  0.70075  0.51381  0.89574  1.0000
  O   O4        1.0  0.80515  0.98619  0.10440  1.0000
  O   O5        1.0  0.08765  0.37431  0.86767  1.0000
  O   O6        1.0  0.21996  0.12575  0.13221  1.0000
  O   O7        1.0  0.91237  0.62569  0.13233  1.0000
  O   O8        1.0  0.78002  0.87424  0.86778  1.0000
  O   O9        1.0  0.53319  0.74930  0.21578  1.0000
  O   O10       1.0  0.31728  0.75063  0.78423  1.0000
  O   O11       1.0  0.46678  0.25069  0.78421  1.0000
  O   O12       1.0  0.68273  0.24937  0.21577  1.0000
  F   F1        1.0  0.02801  0.70933  0.46558  1.0000
  F   F2        1.0  0.56240  0.79055  0.53454  1.0000
  F   F3        1.0  0.97200  0.29067  0.53442  1.0000
  F   F4        1.0  0.43760  0.20946  0.46546  1.0000
  F   F5        1.0  0.61270  0.48143  0.40436  1.0000
  F   F6        1.0  0.20825  0.01865  0.59560  1.0000
  F   F7        1.0  0.38731  0.51857  0.59564  1.0000
  F   F8        1.0  0.79175  0.98136  0.40440  1.0000
  F   F9        1.0  0.10802  0.39211  0.30976  1.0000
  F   F10       1.0  0.79818  0.10791  0.69020  1.0000
  F   F11       1.0  0.89198  0.60789  0.69024  1.0000
  F   F12       1.0  0.20182  0.89210  0.30980  1.0000
