data_image0
_chemical_formula_structural       Ag2H36C34S6O6F6
_chemical_formula_sum              "Ag2 H36 C34 S6 O6 F6"
_cell_length_a       9.66486
_cell_length_b       10.0899
_cell_length_c       11.7333
_cell_angle_alpha    78.3181
_cell_angle_beta     65.9504
_cell_angle_gamma    68.7153

_space_group_name_H-M_alt    "P 1"
_space_group_IT_number       1

loop_
  _space_group_symop_operation_xyz
  'x, y, z'

loop_
  _atom_site_type_symbol
  _atom_site_label
  _atom_site_symmetry_multiplicity
  _atom_site_fract_x
  _atom_site_fract_y
  _atom_site_fract_z
  _atom_site_occupancy
  Ag  Ag1       1.0  0.25960  0.44615  0.93176  1.0000
  Ag  Ag2       1.0  0.74041  0.55385  0.06824  1.0000
  H   H1        1.0  0.14362  0.39080  0.75976  1.0000
  H   H2        1.0  0.85638  0.60920  0.24024  1.0000
  H   H3        1.0  0.99173  0.28854  0.69502  1.0000
  H   H4        1.0  0.00827  0.71147  0.30498  1.0000
  H   H5        1.0  0.10897  0.03666  0.63132  1.0000
  H   H6        1.0  0.89103  0.96335  0.36869  1.0000
  H   H7        1.0  0.38332  0.89561  0.62298  1.0000
  H   H8        1.0  0.61667  0.10438  0.37702  1.0000
  H   H9        1.0  0.53666  0.99796  0.68405  1.0000
  H   H10       1.0  0.46333  0.00203  0.31595  1.0000
  H   H11       1.0  0.64847  0.04866  0.78740  1.0000
  H   H12       1.0  0.35153  0.95134  0.21260  1.0000
  H   H13       1.0  0.62923  0.17672  0.88107  1.0000
  H   H14       1.0  0.37077  0.82329  0.11893  1.0000
  H   H15       1.0  0.37482  0.14713  0.03575  1.0000
  H   H16       1.0  0.62518  0.85287  0.96425  1.0000
  H   H17       1.0  0.37470  0.03060  0.94145  1.0000
  H   H18       1.0  0.62530  0.96940  0.05856  1.0000
  H   H19       1.0  0.83308  0.80859  0.79148  1.0000
  H   H20       1.0  0.16692  0.19141  0.20852  1.0000
  H   H21       1.0  0.88776  0.87242  0.56464  1.0000
  H   H22       1.0  0.11224  0.12758  0.43536  1.0000
  H   H23       1.0  0.16829  0.80825  0.41130  1.0000
  H   H24       1.0  0.83171  0.19175  0.58870  1.0000
  H   H25       1.0  0.39227  0.68652  0.48633  1.0000
  H   H26       1.0  0.60773  0.31347  0.51367  1.0000
  H   H27       1.0  0.33791  0.62712  0.71371  1.0000
  H   H28       1.0  0.66210  0.37288  0.28629  1.0000
  H   H29       1.0  0.11502  0.75501  0.06074  1.0000
  H   H30       1.0  0.88498  0.24499  0.93926  1.0000
  H   H31       1.0  0.21524  0.80029  0.90164  1.0000
  H   H32       1.0  0.78476  0.19971  0.09836  1.0000
  H   H33       1.0  0.86027  0.93851  0.05899  1.0000
  H   H34       1.0  0.13973  0.06149  0.94102  1.0000
  H   H35       1.0  0.95039  0.98154  0.89687  1.0000
  H   H36       1.0  0.04960  0.01846  0.10313  1.0000
  C   C1        1.0  0.29438  0.39722  0.34864  1.0000
  C   C2        1.0  0.70561  0.60279  0.65136  1.0000
  C   C3        1.0  0.34860  0.20021  0.72888  1.0000
  C   C4        1.0  0.65140  0.79979  0.27112  1.0000
  C   C5        1.0  0.19626  0.28226  0.72933  1.0000
  C   C6        1.0  0.80374  0.71774  0.27067  1.0000
  C   C7        1.0  0.11110  0.22438  0.69240  1.0000
  C   C8        1.0  0.88890  0.77562  0.30760  1.0000
  C   C9        1.0  0.17670  0.08419  0.65649  1.0000
  C   C10       1.0  0.82330  0.91581  0.34351  1.0000
  C   C11       1.0  0.33015  0.00394  0.65307  1.0000
  C   C12       1.0  0.66985  0.99605  0.34693  1.0000
  C   C13       1.0  0.41690  0.06176  0.68800  1.0000
  C   C14       1.0  0.58310  0.93824  0.31200  1.0000
  C   C15       1.0  0.56179  0.12816  0.85541  1.0000
  C   C16       1.0  0.43821  0.87184  0.14459  1.0000
  C   C17       1.0  0.45254  0.06389  0.96900  1.0000
  C   C18       1.0  0.54746  0.93611  0.03100  1.0000
  C   C19       1.0  0.08213  0.71625  0.76609  1.0000
  C   C20       1.0  0.91788  0.28375  0.23391  1.0000
  C   C21       1.0  0.95524  0.78590  0.72472  1.0000
  C   C22       1.0  0.04476  0.21410  0.27528  1.0000
  C   C23       1.0  0.98669  0.82033  0.59708  1.0000
  C   C24       1.0  0.01331  0.17967  0.40292  1.0000
  C   C25       1.0  0.14360  0.78506  0.51133  1.0000
  C   C26       1.0  0.85641  0.21494  0.48867  1.0000
  C   C27       1.0  0.26989  0.71563  0.55333  1.0000
  C   C28       1.0  0.73011  0.28436  0.44667  1.0000
  C   C29       1.0  0.23982  0.68121  0.68048  1.0000
  C   C30       1.0  0.76018  0.31879  0.31952  1.0000
  C   C31       1.0  0.09819  0.79957  0.97211  1.0000
  C   C32       1.0  0.90181  0.20043  0.02789  1.0000
  C   C33       1.0  0.97301  0.94558  0.98461  1.0000
  C   C34       1.0  0.02699  0.05442  0.01539  1.0000
  S   S1        1.0  0.45686  0.27696  0.77341  1.0000
  S   S2        1.0  0.54314  0.72304  0.22659  1.0000
  S   S3        1.0  0.04094  0.66857  0.92890  1.0000
  S   S4        1.0  0.95906  0.33143  0.07110  1.0000
  S   S5        1.0  0.35735  0.46317  0.18059  1.0000
  S   S6        1.0  0.64265  0.53684  0.81941  1.0000
  O   O1        1.0  0.28156  0.39646  0.13207  1.0000
  O   O2        1.0  0.71844  0.60356  0.86793  1.0000
  O   O3        1.0  0.28995  0.61743  0.18506  1.0000
  O   O4        1.0  0.71005  0.38258  0.81495  1.0000
  O   O5        1.0  0.53108  0.40555  0.13556  1.0000
  O   O6        1.0  0.46892  0.59446  0.86444  1.0000
  F   F1        1.0  0.13437  0.44740  0.40641  1.0000
  F   F2        1.0  0.86563  0.55260  0.59359  1.0000
  F   F3        1.0  0.33966  0.25201  0.35998  1.0000
  F   F4        1.0  0.66034  0.74799  0.64001  1.0000
  F   F5        1.0  0.36296  0.43905  0.40997  1.0000
  F   F6        1.0  0.63703  0.56094  0.59004  1.0000
