data_image0
_chemical_formula_structural       Cd2H32C34O14
_chemical_formula_sum              "Cd2 H32 C34 O14"
_cell_length_a       6.05861
_cell_length_b       9.46235
_cell_length_c       15.2217
_cell_angle_alpha    97.3687
_cell_angle_beta     90.0819
_cell_angle_gamma    108.628

_space_group_name_H-M_alt    "P 1"
_space_group_IT_number       1

loop_
  _space_group_symop_operation_xyz
  'x, y, z'

loop_
  _atom_site_type_symbol
  _atom_site_label
  _atom_site_symmetry_multiplicity
  _atom_site_fract_x
  _atom_site_fract_y
  _atom_site_fract_z
  _atom_site_occupancy
  Cd  Cd1       1.0  0.50548  0.55221  0.93709  1.0000
  Cd  Cd2       1.0  0.95380  0.44768  0.06308  1.0000
  H   H1        1.0  0.89738  0.92779  0.23060  1.0000
  H   H2        1.0  0.96974  0.07203  0.76897  1.0000
  H   H3        1.0  0.02469  0.14423  0.35174  1.0000
  H   H4        1.0  0.88157  0.85566  0.64777  1.0000
  H   H5        1.0  0.63603  0.02585  0.40647  1.0000
  H   H6        1.0  0.61129  0.97478  0.59410  1.0000
  H   H7        1.0  0.50434  0.80791  0.28587  1.0000
  H   H8        1.0  0.69653  0.19269  0.71465  1.0000
  H   H9        1.0  0.54256  0.21319  0.50564  1.0000
  H   H10       1.0  0.33155  0.78762  0.49451  1.0000
  H   H11       1.0  0.52593  0.33415  0.42672  1.0000
  H   H12       1.0  0.19508  0.66639  0.57334  1.0000
  H   H13       1.0  0.91699  0.30357  0.60150  1.0000
  H   H14       1.0  0.61540  0.69611  0.39811  1.0000
  H   H15       1.0  0.97441  0.47924  0.74173  1.0000
  H   H16       1.0  0.49700  0.52020  0.25798  1.0000
  H   H17       1.0  0.71354  0.63407  0.70399  1.0000
  H   H18       1.0  0.08297  0.36644  0.29582  1.0000
  H   H19       1.0  0.65723  0.45813  0.56407  1.0000
  H   H20       1.0  0.20271  0.54265  0.43568  1.0000
  H   H21       1.0  0.15028  0.76018  0.77991  1.0000
  H   H22       1.0  0.39236  0.23956  0.22021  1.0000
  H   H23       1.0  0.51621  0.96129  0.84314  1.0000
  H   H24       1.0  0.55614  0.03811  0.15694  1.0000
  H   H25       1.0  0.48366  0.88486  0.94535  1.0000
  H   H26       1.0  0.59943  0.11445  0.05471  1.0000
  H   H27       1.0  0.27560  0.96558  0.90946  1.0000
  H   H28       1.0  0.31099  0.03419  0.09065  1.0000
  H   H29       1.0  0.45922  0.71372  0.09643  1.0000
  H   H30       1.0  0.74565  0.28627  0.90371  1.0000
  H   H31       1.0  0.72595  0.74885  0.08428  1.0000
  H   H32       1.0  0.97724  0.25095  0.91592  1.0000
  C   C1        1.0  0.11639  0.72224  0.18010  1.0000
  C   C2        1.0  0.39373  0.27778  0.82003  1.0000
  C   C3        1.0  0.19274  0.85396  0.25125  1.0000
  C   C4        1.0  0.33881  0.14623  0.74878  1.0000
  C   C5        1.0  0.05807  0.94919  0.26987  1.0000
  C   C6        1.0  0.10918  0.05083  0.72987  1.0000
  C   C7        1.0  0.13029  0.07078  0.33717  1.0000
  C   C8        1.0  0.06039  0.92929  0.66254  1.0000
  C   C9        1.0  0.33899  0.09983  0.38670  1.0000
  C   C10       1.0  0.24038  0.90048  0.61331  1.0000
  C   C11       1.0  0.47363  0.00455  0.36795  1.0000
  C   C12       1.0  0.47000  0.99600  0.63235  1.0000
  C   C13       1.0  0.40114  0.88274  0.30085  1.0000
  C   C14       1.0  0.51871  0.11775  0.69944  1.0000
  C   C15       1.0  0.42566  0.23388  0.45684  1.0000
  C   C16       1.0  0.19398  0.76650  0.54318  1.0000
  C   C17       1.0  0.28088  0.36783  0.57403  1.0000
  C   C18       1.0  0.91559  0.63213  0.42574  1.0000
  C   C19       1.0  0.09089  0.37848  0.62376  1.0000
  C   C20       1.0  0.71462  0.62128  0.37594  1.0000
  C   C21       1.0  0.12397  0.47857  0.70202  1.0000
  C   C22       1.0  0.64750  0.52105  0.29773  1.0000
  C   C23       1.0  0.35044  0.57051  0.73002  1.0000
  C   C24       1.0  0.78226  0.42922  0.26984  1.0000
  C   C25       1.0  0.53933  0.56252  0.67986  1.0000
  C   C26       1.0  0.97986  0.43771  0.31996  1.0000
  C   C27       1.0  0.50647  0.46185  0.60185  1.0000
  C   C28       1.0  0.04775  0.53853  0.39792  1.0000
  C   C29       1.0  0.24455  0.74762  0.83851  1.0000
  C   C30       1.0  0.49858  0.25202  0.16155  1.0000
  C   C31       1.0  0.38973  0.89958  0.88737  1.0000
  C   C32       1.0  0.49125  0.09993  0.11270  1.0000
  C   C33       1.0  0.06626  0.66288  0.90075  1.0000
  C   C34       1.0  0.40435  0.33690  0.09939  1.0000
  O   O1        1.0  0.92552  0.69348  0.13591  1.0000
  O   O2        1.0  0.23160  0.30621  0.86416  1.0000
  O   O3        1.0  0.24484  0.63749  0.16587  1.0000
  O   O4        1.0  0.60674  0.36270  0.83442  1.0000
  O   O5        1.0  0.23038  0.26120  0.50036  1.0000
  O   O6        1.0  0.97127  0.73863  0.49948  1.0000
  O   O7        1.0  0.40548  0.66781  0.80940  1.0000
  O   O8        1.0  0.73946  0.33160  0.19057  1.0000
  O   O9        1.0  0.87385  0.68660  0.90147  1.0000
  O   O10       1.0  0.18836  0.31332  0.09876  1.0000
  O   O11       1.0  0.13183  0.58096  0.94915  1.0000
  O   O12       1.0  0.55131  0.41887  0.05100  1.0000
  O   O13       1.0  0.58189  0.75047  0.05373  1.0000
  O   O14       1.0  0.83177  0.24942  0.94643  1.0000
