data_image0
_chemical_formula_structural       Ag2P2H24C30S4N4O8
_chemical_formula_sum              "Ag2 P2 H24 C30 S4 N4 O8"
_cell_length_a       7.18132
_cell_length_b       10.7712
_cell_length_c       12.1907
_cell_angle_alpha    105.133
_cell_angle_beta     99.1363
_cell_angle_gamma    95.2797

_space_group_name_H-M_alt    "P 1"
_space_group_IT_number       1

loop_
  _space_group_symop_operation_xyz
  'x, y, z'

loop_
  _atom_site_type_symbol
  _atom_site_label
  _atom_site_symmetry_multiplicity
  _atom_site_fract_x
  _atom_site_fract_y
  _atom_site_fract_z
  _atom_site_occupancy
  Ag  Ag1       1.0  0.55198  0.66860  0.99992  1.0000
  Ag  Ag2       1.0  0.44800  0.33136  0.00005  1.0000
  P   P1        1.0  0.36324  0.64581  0.21755  1.0000
  P   P2        1.0  0.63677  0.35419  0.78245  1.0000
  H   H1        1.0  0.37273  0.88545  0.17242  1.0000
  H   H2        1.0  0.62727  0.11455  0.82758  1.0000
  H   H3        1.0  0.14289  0.44245  0.62443  1.0000
  H   H4        1.0  0.85712  0.55755  0.37555  1.0000
  H   H5        1.0  0.15578  0.62458  0.51328  1.0000
  H   H6        1.0  0.84425  0.37543  0.48671  1.0000
  H   H7        1.0  0.21530  0.85838  0.65853  1.0000
  H   H8        1.0  0.78473  0.14163  0.34146  1.0000
  H   H9        1.0  0.10556  0.02289  0.73588  1.0000
  H   H10       1.0  0.89440  0.97711  0.26413  1.0000
  H   H11       1.0  0.05305  0.25987  0.84776  1.0000
  H   H12       1.0  0.94692  0.74012  0.15224  1.0000
  H   H13       1.0  0.13146  0.28853  0.07497  1.0000
  H   H14       1.0  0.86853  0.71148  0.92503  1.0000
  H   H15       1.0  0.35985  0.98603  0.34154  1.0000
  H   H16       1.0  0.64015  0.01398  0.65846  1.0000
  H   H17       1.0  0.40203  0.17868  0.53359  1.0000
  H   H18       1.0  0.59792  0.82132  0.46642  1.0000
  H   H19       1.0  0.35968  0.40151  0.48694  1.0000
  H   H20       1.0  0.64037  0.59850  0.51308  1.0000
  H   H21       1.0  0.50870  0.50028  0.27700  1.0000
  H   H22       1.0  0.49132  0.49972  0.72299  1.0000
  H   H23       1.0  0.08614  0.53127  0.19937  1.0000
  H   H24       1.0  0.91390  0.46872  0.80062  1.0000
  C   C1        1.0  0.16489  0.54709  0.66151  1.0000
  C   C2        1.0  0.83512  0.45291  0.33848  1.0000
  C   C3        1.0  0.17087  0.64333  0.60662  1.0000
  C   C4        1.0  0.82914  0.35668  0.39336  1.0000
  C   C5        1.0  0.20224  0.76991  0.68526  1.0000
  C   C6        1.0  0.79778  0.23009  0.31473  1.0000
  C   C7        1.0  0.22214  0.76919  0.79960  1.0000
  C   C8        1.0  0.77785  0.23081  0.20040  1.0000
  C   C9        1.0  0.25209  0.87470  0.90602  1.0000
  C   C10       1.0  0.74789  0.12530  0.09398  1.0000
  C   C11       1.0  0.21034  0.00195  0.91197  1.0000
  C   C12       1.0  0.78961  0.99804  0.08803  1.0000
  C   C13       1.0  0.14014  0.06417  0.82893  1.0000
  C   C14       1.0  0.85981  0.93583  0.17107  1.0000
  C   C15       1.0  0.11716  0.19098  0.88792  1.0000
  C   C16       1.0  0.88279  0.80901  0.11208  1.0000
  C   C17       1.0  0.17624  0.21282  0.01031  1.0000
  C   C18       1.0  0.82372  0.78718  0.98969  1.0000
  C   C19       1.0  0.23178  0.09330  0.02631  1.0000
  C   C20       1.0  0.76818  0.90670  0.97368  1.0000
  C   C21       1.0  0.29008  0.05144  0.12429  1.0000
  C   C22       1.0  0.70992  0.94856  0.87571  1.0000
  C   C23       1.0  0.31278  0.12758  0.24379  1.0000
  C   C24       1.0  0.68728  0.87243  0.75621  1.0000
  C   C25       1.0  0.34853  0.08679  0.34345  1.0000
  C   C26       1.0  0.65148  0.91322  0.65656  1.0000
  C   C27       1.0  0.36958  0.18930  0.44643  1.0000
  C   C28       1.0  0.63042  0.81070  0.55357  1.0000
  C   C29       1.0  0.34790  0.30711  0.42485  1.0000
  C   C30       1.0  0.65213  0.69289  0.57515  1.0000
  S   S1        1.0  0.20273  0.61029  0.80966  1.0000
  S   S2        1.0  0.79727  0.38971  0.19033  1.0000
  S   S3        1.0  0.30173  0.29310  0.28030  1.0000
  S   S4        1.0  0.69835  0.70690  0.71970  1.0000
  N   N1        1.0  0.33074  0.92768  0.10498  1.0000
  N   N2        1.0  0.66923  0.07232  0.89502  1.0000
  N   N3        1.0  0.31342  0.84081  0.00214  1.0000
  N   N4        1.0  0.68653  0.15919  0.99786  1.0000
  O   O1        1.0  0.42162  0.78999  0.25430  1.0000
  O   O2        1.0  0.57839  0.21001  0.74572  1.0000
  O   O3        1.0  0.48670  0.58915  0.31168  1.0000
  O   O4        1.0  0.51330  0.41084  0.68833  1.0000
  O   O5        1.0  0.14609  0.62110  0.23660  1.0000
  O   O6        1.0  0.85391  0.37890  0.76338  1.0000
  O   O7        1.0  0.37532  0.56416  0.09693  1.0000
  O   O8        1.0  0.62471  0.43585  0.90308  1.0000
