data_image0
_chemical_formula_structural       Cu2H16C18I2N4
_chemical_formula_sum              "Cu2 H16 C18 I2 N4"
_cell_length_a       4.12684
_cell_length_b       9.85857
_cell_length_c       11.6448
_cell_angle_alpha    89.9994
_cell_angle_beta     101.892
_cell_angle_gamma    90.0006

_space_group_name_H-M_alt    "P 1"
_space_group_IT_number       1

loop_
  _space_group_symop_operation_xyz
  'x, y, z'

loop_
  _atom_site_type_symbol
  _atom_site_label
  _atom_site_symmetry_multiplicity
  _atom_site_fract_x
  _atom_site_fract_y
  _atom_site_fract_z
  _atom_site_occupancy
  Cu  Cu1       1.0  0.50328  0.60317  0.78616  1.0000
  Cu  Cu2       1.0  0.49672  0.10317  0.21384  1.0000
  H   H1        1.0  0.16575  0.37293  0.02048  1.0000
  H   H2        1.0  0.83425  0.87292  0.97952  1.0000
  H   H3        1.0  0.22671  0.51806  0.94270  1.0000
  H   H4        1.0  0.77329  0.01805  0.05730  1.0000
  H   H5        1.0  0.27886  0.15185  0.95894  1.0000
  H   H6        1.0  0.72115  0.65184  0.04106  1.0000
  H   H7        1.0  0.45918  0.00967  0.80645  1.0000
  H   H8        1.0  0.54082  0.50966  0.19355  1.0000
  H   H9        1.0  0.67755  0.99861  0.62181  1.0000
  H   H10       1.0  0.32244  0.49861  0.37819  1.0000
  H   H11       1.0  0.86515  0.11782  0.45781  1.0000
  H   H12       1.0  0.13486  0.61782  0.54220  1.0000
  H   H13       1.0  0.87547  0.36962  0.45312  1.0000
  H   H14       1.0  0.12454  0.86962  0.54688  1.0000
  H   H15       1.0  0.70301  0.50391  0.61122  1.0000
  H   H16       1.0  0.29699  0.00391  0.38878  1.0000
  C   C1        1.0  0.37992  0.34184  0.87849  1.0000
  C   C2        1.0  0.62009  0.84184  0.12150  1.0000
  C   C3        1.0  0.37194  0.19743  0.88671  1.0000
  C   C4        1.0  0.62805  0.69742  0.11330  1.0000
  C   C5        1.0  0.47070  0.12013  0.80277  1.0000
  C   C6        1.0  0.52931  0.62013  0.19722  1.0000
  C   C7        1.0  0.58298  0.18344  0.70858  1.0000
  C   C8        1.0  0.41701  0.68343  0.29142  1.0000
  C   C9        1.0  0.68338  0.10920  0.61817  1.0000
  C   C10       1.0  0.31662  0.60920  0.38183  1.0000
  C   C11       1.0  0.78673  0.17524  0.52740  1.0000
  C   C12       1.0  0.21327  0.67523  0.47261  1.0000
  C   C13       1.0  0.79332  0.31812  0.52493  1.0000
  C   C14       1.0  0.20668  0.81812  0.47507  1.0000
  C   C15       1.0  0.69773  0.39320  0.61267  1.0000
  C   C16       1.0  0.30227  0.89319  0.38733  1.0000
  C   C17       1.0  0.58947  0.32812  0.70594  1.0000
  C   C18       1.0  0.41053  0.82812  0.29406  1.0000
  I   I1        1.0  0.00241  0.75405  0.79218  1.0000
  I   I2        1.0  0.99759  0.25405  0.20782  1.0000
  N   N1        1.0  0.48924  0.40502  0.79141  1.0000
  N   N2        1.0  0.51075  0.90502  0.20859  1.0000
  N   N3        1.0  0.28252  0.41882  0.96185  1.0000
  N   N4        1.0  0.71747  0.91882  0.03816  1.0000
