data_image0
_chemical_formula_structural       Cu2H16C18N4Cl2
_chemical_formula_sum              "Cu2 H16 C18 N4 Cl2"
_cell_length_a       3.71942
_cell_length_b       7.37966
_cell_length_c       15.3524
_cell_angle_alpha    94.2103
_cell_angle_beta     89.9995
_cell_angle_gamma    90

_space_group_name_H-M_alt    "P 1"
_space_group_IT_number       1

loop_
  _space_group_symop_operation_xyz
  'x, y, z'

loop_
  _atom_site_type_symbol
  _atom_site_label
  _atom_site_symmetry_multiplicity
  _atom_site_fract_x
  _atom_site_fract_y
  _atom_site_fract_z
  _atom_site_occupancy
  Cu  Cu1       1.0  0.02464  0.55437  0.59576  1.0000
  Cu  Cu2       1.0  0.52464  0.44563  0.40424  1.0000
  H   H1        1.0  0.27341  0.84319  0.54295  1.0000
  H   H2        1.0  0.77341  0.15682  0.45705  1.0000
  H   H3        1.0  0.36424  0.07184  0.57688  1.0000
  H   H4        1.0  0.86424  0.92816  0.42312  1.0000
  H   H5        1.0  0.23973  0.19977  0.71842  1.0000
  H   H6        1.0  0.73971  0.80023  0.28158  1.0000
  H   H7        1.0  0.02444  0.15143  0.86901  1.0000
  H   H8        1.0  0.52443  0.84856  0.13099  1.0000
  H   H9        1.0  0.77198  0.93848  0.97269  1.0000
  H   H10       1.0  0.27198  0.06151  0.02731  1.0000
  H   H11       1.0  0.54868  0.62955  0.00161  1.0000
  H   H12       1.0  0.04869  0.37044  0.99838  1.0000
  H   H13       1.0  0.54828  0.38417  0.88159  1.0000
  H   H14       1.0  0.04828  0.61583  0.11840  1.0000
  H   H15       1.0  0.77280  0.44378  0.73416  1.0000
  H   H16       1.0  0.27280  0.55622  0.26584  1.0000
  C   C1        1.0  0.14005  0.92031  0.67000  1.0000
  C   C2        1.0  0.64005  0.07969  0.33000  1.0000
  C   C3        1.0  0.14070  0.06823  0.73577  1.0000
  C   C4        1.0  0.64068  0.93177  0.26423  1.0000
  C   C5        1.0  0.02328  0.04048  0.81790  1.0000
  C   C6        1.0  0.52325  0.95952  0.18210  1.0000
  C   C7        1.0  0.89775  0.86611  0.83761  1.0000
  C   C8        1.0  0.39774  0.13389  0.16239  1.0000
  C   C9        1.0  0.77187  0.82859  0.92116  1.0000
  C   C10       1.0  0.27186  0.17140  0.07884  1.0000
  C   C11       1.0  0.64894  0.65766  0.93734  1.0000
  C   C12       1.0  0.14894  0.34233  0.06266  1.0000
  C   C13       1.0  0.64962  0.51861  0.86940  1.0000
  C   C14       1.0  0.14962  0.48138  0.13059  1.0000
  C   C15       1.0  0.77399  0.55085  0.78710  1.0000
  C   C16       1.0  0.27398  0.44915  0.21290  1.0000
  C   C17       1.0  0.90016  0.72463  0.76895  1.0000
  C   C18       1.0  0.40016  0.27537  0.23105  1.0000
  N   N1        1.0  0.02176  0.75342  0.68613  1.0000
  N   N2        1.0  0.52175  0.24659  0.31387  1.0000
  N   N3        1.0  0.25899  0.94892  0.58925  1.0000
  N   N4        1.0  0.75899  0.05109  0.41075  1.0000
  Cl  Cl1       1.0  0.52074  0.36632  0.56695  1.0000
  Cl  Cl2       1.0  0.02074  0.63368  0.43305  1.0000
