data_image0
_chemical_formula_structural       Cd4H20C28S8N12
_chemical_formula_sum              "Cd4 H20 C28 S8 N12"
_cell_length_a       5.92918
_cell_length_b       12.1754
_cell_length_c       13.671
_cell_angle_alpha    90.0006
_cell_angle_beta     102.635
_cell_angle_gamma    90.0003

_space_group_name_H-M_alt    "P 1"
_space_group_IT_number       1

loop_
  _space_group_symop_operation_xyz
  'x, y, z'

loop_
  _atom_site_type_symbol
  _atom_site_label
  _atom_site_symmetry_multiplicity
  _atom_site_fract_x
  _atom_site_fract_y
  _atom_site_fract_z
  _atom_site_occupancy
  Cd  Cd1       1.0  0.39857  0.84007  0.52223  1.0000
  Cd  Cd2       1.0  0.10143  0.34007  0.97776  1.0000
  Cd  Cd3       1.0  0.60146  0.15992  0.47778  1.0000
  Cd  Cd4       1.0  0.89856  0.65993  0.02223  1.0000
  H   H1        1.0  0.69750  0.71213  0.38540  1.0000
  H   H2        1.0  0.80252  0.21214  0.11461  1.0000
  H   H3        1.0  0.30249  0.28785  0.61461  1.0000
  H   H4        1.0  0.19748  0.78785  0.88539  1.0000
  H   H5        1.0  0.69544  0.53950  0.28721  1.0000
  H   H6        1.0  0.80457  0.03952  0.21281  1.0000
  H   H7        1.0  0.30455  0.46049  0.71280  1.0000
  H   H8        1.0  0.19543  0.96048  0.78719  1.0000
  H   H9        1.0  0.37314  0.40378  0.28285  1.0000
  H   H10       1.0  0.12686  0.90379  0.21715  1.0000
  H   H11       1.0  0.62682  0.59622  0.71713  1.0000
  H   H12       1.0  0.87315  0.09621  0.78285  1.0000
  H   H13       1.0  0.06832  0.44734  0.37844  1.0000
  H   H14       1.0  0.43168  0.94735  0.12156  1.0000
  H   H15       1.0  0.93165  0.55266  0.62155  1.0000
  H   H16       1.0  0.56833  0.05266  0.87844  1.0000
  H   H17       1.0  0.09849  0.62409  0.47494  1.0000
  H   H18       1.0  0.40151  0.12410  0.02506  1.0000
  H   H19       1.0  0.90150  0.37590  0.52506  1.0000
  H   H20       1.0  0.59849  0.87591  0.97494  1.0000
  C   C1        1.0  0.85204  0.91864  0.40736  1.0000
  C   C2        1.0  0.64796  0.41865  0.09265  1.0000
  C   C3        1.0  0.14798  0.08137  0.59265  1.0000
  C   C4        1.0  0.35204  0.58136  0.90735  1.0000
  C   C5        1.0  0.95944  0.78149  0.63323  1.0000
  C   C6        1.0  0.54054  0.28148  0.86677  1.0000
  C   C7        1.0  0.04057  0.21851  0.36676  1.0000
  C   C8        1.0  0.45945  0.71852  0.13324  1.0000
  C   C9        1.0  0.56247  0.65076  0.38308  1.0000
  C   C10       1.0  0.93754  0.15077  0.11693  1.0000
  C   C11       1.0  0.43753  0.34923  0.61693  1.0000
  C   C12       1.0  0.06245  0.84923  0.88307  1.0000
  C   C13       1.0  0.56066  0.55409  0.32849  1.0000
  C   C14       1.0  0.93936  0.05411  0.17152  1.0000
  C   C15       1.0  0.43933  0.44590  0.67151  1.0000
  C   C16       1.0  0.06064  0.94589  0.82847  1.0000
  C   C17       1.0  0.38195  0.47925  0.32625  1.0000
  C   C18       1.0  0.11806  0.97926  0.17375  1.0000
  C   C19       1.0  0.61803  0.52075  0.67374  1.0000
  C   C20       1.0  0.88195  0.02074  0.82624  1.0000
  C   C21       1.0  0.21193  0.50342  0.37919  1.0000
  C   C22       1.0  0.28807  0.00343  0.12081  1.0000
  C   C23       1.0  0.78804  0.49658  0.62080  1.0000
  C   C24       1.0  0.71194  0.99657  0.87918  1.0000
  C   C25       1.0  0.22639  0.60173  0.43190  1.0000
  C   C26       1.0  0.27361  0.10173  0.06810  1.0000
  C   C27       1.0  0.77360  0.39827  0.56810  1.0000
  C   C28       1.0  0.72639  0.89827  0.93190  1.0000
  S   S1        1.0  0.58078  0.95742  0.37803  1.0000
  S   S2        1.0  0.91922  0.45742  0.12197  1.0000
  S   S3        1.0  0.41924  0.04259  0.62198  1.0000
  S   S4        1.0  0.08077  0.54258  0.87803  1.0000
  S   S5        1.0  0.22790  0.74132  0.66719  1.0000
  S   S6        1.0  0.27208  0.24132  0.83281  1.0000
  S   S7        1.0  0.77213  0.25867  0.33282  1.0000
  S   S8        1.0  0.72792  0.75867  0.16719  1.0000
  N   N1        1.0  0.04608  0.88898  0.42441  1.0000
  N   N2        1.0  0.45390  0.38899  0.07559  1.0000
  N   N3        1.0  0.95394  0.11104  0.57560  1.0000
  N   N4        1.0  0.54609  0.61102  0.92440  1.0000
  N   N5        1.0  0.76442  0.80980  0.61123  1.0000
  N   N6        1.0  0.73559  0.30979  0.88878  1.0000
  N   N7        1.0  0.23562  0.19020  0.38877  1.0000
  N   N8        1.0  0.26441  0.69021  0.11122  1.0000
  N   N9        1.0  0.39820  0.67447  0.43379  1.0000
  N   N10       1.0  0.10182  0.17448  0.06621  1.0000
  N   N11       1.0  0.60180  0.32552  0.56622  1.0000
  N   N12       1.0  0.89818  0.82552  0.93378  1.0000
