data_image0
_chemical_formula_structural       Fe3P4H22C16N2O20
_chemical_formula_sum              "Fe3 P4 H22 C16 N2 O20"
_cell_length_a       9.04115
_cell_length_b       8.97729
_cell_length_c       9.96479
_cell_angle_alpha    101.864
_cell_angle_beta     109.489
_cell_angle_gamma    109.514

_space_group_name_H-M_alt    "P 1"
_space_group_IT_number       1

loop_
  _space_group_symop_operation_xyz
  'x, y, z'

loop_
  _atom_site_type_symbol
  _atom_site_label
  _atom_site_symmetry_multiplicity
  _atom_site_fract_x
  _atom_site_fract_y
  _atom_site_fract_z
  _atom_site_occupancy
  Fe  Fe1       1.0  0.26321  0.24878  0.53624  1.0000
  Fe  Fe2       1.0  0.73635  0.75099  0.46350  1.0000
  Fe  Fe3       1.0  0.99995  0.99994  0.99985  1.0000
  P   P1        1.0  0.27890  0.96419  0.30444  1.0000
  P   P2        1.0  0.72137  0.03602  0.69554  1.0000
  P   P3        1.0  0.91632  0.89776  0.26475  1.0000
  P   P4        1.0  0.08376  0.10214  0.73508  1.0000
  H   H1        1.0  0.48263  0.87842  0.39246  1.0000
  H   H2        1.0  0.51750  0.12171  0.60762  1.0000
  H   H3        1.0  0.09340  0.85411  0.51638  1.0000
  H   H4        1.0  0.90678  0.14599  0.48365  1.0000
  H   H5        1.0  0.91295  0.21319  0.13367  1.0000
  H   H6        1.0  0.08566  0.78627  0.86488  1.0000
  H   H7        1.0  0.11733  0.30144  0.22695  1.0000
  H   H8        1.0  0.88129  0.69841  0.77286  1.0000
  H   H9        1.0  0.43539  0.27810  0.89479  1.0000
  H   H10       1.0  0.56506  0.72175  0.10527  1.0000
  H   H11       1.0  0.11726  0.59688  0.21272  1.0000
  H   H12       1.0  0.88292  0.40316  0.78752  1.0000
  H   H13       1.0  0.00134  0.66035  0.07085  1.0000
  H   H14       1.0  0.99873  0.33953  0.92932  1.0000
  H   H15       1.0  0.95047  0.47480  0.37075  1.0000
  H   H16       1.0  0.04925  0.52651  0.63030  1.0000
  H   H17       1.0  0.66554  0.24790  0.32472  1.0000
  H   H18       1.0  0.33448  0.75234  0.67558  1.0000
  H   H19       1.0  0.40152  0.15529  0.07529  1.0000
  H   H20       1.0  0.59889  0.84411  0.92449  1.0000
  H   H21       1.0  0.69143  0.48756  0.92425  1.0000
  H   H22       1.0  0.30916  0.51235  0.07600  1.0000
  C   C1        1.0  0.07946  0.81001  0.30454  1.0000
  C   C2        1.0  0.92086  0.19022  0.69559  1.0000
  C   C3        1.0  0.01404  0.63920  0.17797  1.0000
  C   C4        1.0  0.98618  0.36091  0.82230  1.0000
  C   C5        1.0  0.84593  0.50359  0.15418  1.0000
  C   C6        1.0  0.15430  0.49665  0.84626  1.0000
  C   C7        1.0  0.83402  0.43091  0.26497  1.0000
  C   C8        1.0  0.16599  0.56970  0.73566  1.0000
  C   C9        1.0  0.67590  0.30439  0.23934  1.0000
  C   C10       1.0  0.32418  0.69586  0.76098  1.0000
  C   C11       1.0  0.53032  0.25029  0.10298  1.0000
  C   C12       1.0  0.46995  0.74955  0.89708  1.0000
  C   C13       1.0  0.69631  0.44290  0.01878  1.0000
  C   C14       1.0  0.30408  0.55708  0.98148  1.0000
  C   C15       1.0  0.42806  0.48558  0.42457  1.0000
  C   C16       1.0  0.57148  0.51397  0.57516  1.0000
  N   N1        1.0  0.54529  0.32025  0.99759  1.0000
  N   N2        1.0  0.45508  0.67963  0.00251  1.0000
  O   O1        1.0  0.39541  0.87003  0.29070  1.0000
  O   O2        1.0  0.60474  0.12999  0.70933  1.0000
  O   O3        1.0  0.22868  0.01900  0.16922  1.0000
  O   O4        1.0  0.77158  0.98111  0.83070  1.0000
  O   O5        1.0  0.37822  0.10973  0.46119  1.0000
  O   O6        1.0  0.62210  0.89048  0.53882  1.0000
  O   O7        1.0  0.00402  0.07925  0.38128  1.0000
  O   O8        1.0  0.99574  0.92080  0.61812  1.0000
  O   O9        1.0  0.75620  0.78198  0.28117  1.0000
  O   O10       1.0  0.24383  0.21803  0.71874  1.0000
  O   O11       1.0  0.85539  0.88718  0.09924  1.0000
  O   O12       1.0  0.14481  0.11214  0.90043  1.0000
  O   O13       1.0  0.12437  0.78571  0.44745  1.0000
  O   O14       1.0  0.87629  0.21476  0.55279  1.0000
  O   O15       1.0  0.27126  0.39166  0.40029  1.0000
  O   O16       1.0  0.72827  0.60794  0.59943  1.0000
  O   O17       1.0  0.47068  0.55413  0.33664  1.0000
  O   O18       1.0  0.52893  0.44567  0.66325  1.0000
  O   O19       1.0  0.02002  0.24150  0.12104  1.0000
  O   O20       1.0  0.97920  0.75824  0.87850  1.0000
