data_image0
_chemical_formula_structural       Co3P4H22C16N2O20
_chemical_formula_sum              "Co3 P4 H22 C16 N2 O20"
_cell_length_a       8.99244
_cell_length_b       8.84662
_cell_length_c       9.75239
_cell_angle_alpha    101.803
_cell_angle_beta     108.646
_cell_angle_gamma    109.604

_space_group_name_H-M_alt    "P 1"
_space_group_IT_number       1

loop_
  _space_group_symop_operation_xyz
  'x, y, z'

loop_
  _atom_site_type_symbol
  _atom_site_label
  _atom_site_symmetry_multiplicity
  _atom_site_fract_x
  _atom_site_fract_y
  _atom_site_fract_z
  _atom_site_occupancy
  Co  Co1       1.0  0.25477  0.24351  0.52812  1.0000
  Co  Co2       1.0  0.74521  0.75649  0.47187  1.0000
  Co  Co3       1.0  1.00000  1.00000  0.00000  1.0000
  P   P1        1.0  0.28005  0.96404  0.30296  1.0000
  P   P2        1.0  0.71995  0.03597  0.69704  1.0000
  P   P3        1.0  0.91528  0.89388  0.26052  1.0000
  P   P4        1.0  0.08472  0.10611  0.73948  1.0000
  H   H1        1.0  0.48570  0.87795  0.39047  1.0000
  H   H2        1.0  0.51430  0.12205  0.60954  1.0000
  H   H3        1.0  0.09252  0.85152  0.51819  1.0000
  H   H4        1.0  0.90748  0.14848  0.48181  1.0000
  H   H5        1.0  0.91730  0.18689  0.14122  1.0000
  H   H6        1.0  0.08268  0.81310  0.85876  1.0000
  H   H7        1.0  0.12159  0.28272  0.22028  1.0000
  H   H8        1.0  0.87840  0.71728  0.77972  1.0000
  H   H9        1.0  0.43757  0.28138  0.89093  1.0000
  H   H10       1.0  0.56244  0.71862  0.10908  1.0000
  H   H11       1.0  0.12086  0.59130  0.21137  1.0000
  H   H12       1.0  0.87914  0.40870  0.78863  1.0000
  H   H13       1.0  0.00866  0.65727  0.06691  1.0000
  H   H14       1.0  0.99135  0.34273  0.93309  1.0000
  H   H15       1.0  0.94932  0.46027  0.36653  1.0000
  H   H16       1.0  0.05069  0.53973  0.63347  1.0000
  H   H17       1.0  0.66127  0.23689  0.32203  1.0000
  H   H18       1.0  0.33874  0.76312  0.67797  1.0000
  H   H19       1.0  0.39972  0.15339  0.07302  1.0000
  H   H20       1.0  0.60029  0.84661  0.92698  1.0000
  H   H21       1.0  0.69594  0.49159  0.92130  1.0000
  H   H22       1.0  0.30406  0.50840  0.07869  1.0000
  C   C1        1.0  0.07990  0.80632  0.30254  1.0000
  C   C2        1.0  0.92010  0.19367  0.69746  1.0000
  C   C3        1.0  0.01783  0.63427  0.17495  1.0000
  C   C4        1.0  0.98218  0.36574  0.82505  1.0000
  C   C5        1.0  0.84847  0.49784  0.15048  1.0000
  C   C6        1.0  0.15154  0.50216  0.84953  1.0000
  C   C7        1.0  0.83376  0.42078  0.26105  1.0000
  C   C8        1.0  0.16625  0.57922  0.73895  1.0000
  C   C9        1.0  0.67408  0.29594  0.23618  1.0000
  C   C10       1.0  0.32593  0.70406  0.76382  1.0000
  C   C11       1.0  0.52963  0.24685  0.09975  1.0000
  C   C12       1.0  0.47038  0.75315  0.90025  1.0000
  C   C13       1.0  0.69958  0.44243  0.01542  1.0000
  C   C14       1.0  0.30042  0.55757  0.98458  1.0000
  C   C15       1.0  0.43018  0.48477  0.42145  1.0000
  C   C16       1.0  0.56980  0.51523  0.57855  1.0000
  N   N1        1.0  0.54736  0.32055  0.99437  1.0000
  N   N2        1.0  0.45265  0.67945  0.00563  1.0000
  O   O1        1.0  0.39749  0.86922  0.28787  1.0000
  O   O2        1.0  0.60251  0.13078  0.71213  1.0000
  O   O3        1.0  0.23271  0.02366  0.16789  1.0000
  O   O4        1.0  0.76729  0.97634  0.83211  1.0000
  O   O5        1.0  0.37713  0.10903  0.46310  1.0000
  O   O6        1.0  0.62288  0.89098  0.53689  1.0000
  O   O7        1.0  0.00214  0.07871  0.37674  1.0000
  O   O8        1.0  0.99785  0.92128  0.62325  1.0000
  O   O9        1.0  0.75345  0.77879  0.27753  1.0000
  O   O10       1.0  0.24655  0.22121  0.72247  1.0000
  O   O11       1.0  0.85512  0.88270  0.09139  1.0000
  O   O12       1.0  0.14488  0.11730  0.90862  1.0000
  O   O13       1.0  0.12082  0.77931  0.44680  1.0000
  O   O14       1.0  0.87918  0.22070  0.55320  1.0000
  O   O15       1.0  0.27244  0.39034  0.39534  1.0000
  O   O16       1.0  0.72755  0.60965  0.60466  1.0000
  O   O17       1.0  0.47705  0.55183  0.33213  1.0000
  O   O18       1.0  0.52294  0.44817  0.66788  1.0000
  O   O19       1.0  0.01805  0.22028  0.11659  1.0000
  O   O20       1.0  0.98194  0.77972  0.88340  1.0000
