data_image0
_chemical_formula_structural       Cu3P4H18C16N2O18
_chemical_formula_sum              "Cu3 P4 H18 C16 N2 O18"
_cell_length_a       8.59926
_cell_length_b       9.1023
_cell_length_c       9.5024
_cell_angle_alpha    110.259
_cell_angle_beta     101.646
_cell_angle_gamma    109.721

_space_group_name_H-M_alt    "P 1"
_space_group_IT_number       1

loop_
  _space_group_symop_operation_xyz
  'x, y, z'

loop_
  _atom_site_type_symbol
  _atom_site_label
  _atom_site_symmetry_multiplicity
  _atom_site_fract_x
  _atom_site_fract_y
  _atom_site_fract_z
  _atom_site_occupancy
  Cu  Cu1       1.0  0.27017  0.74964  0.02696  1.0000
  Cu  Cu2       1.0  0.72930  0.25006  0.97294  1.0000
  Cu  Cu3       1.0  0.00048  0.50043  0.50001  1.0000
  P   P1        1.0  0.95345  0.77769  0.79539  1.0000
  P   P2        1.0  0.04649  0.22233  0.20434  1.0000
  P   P3        1.0  0.89371  0.42344  0.76488  1.0000
  P   P4        1.0  0.10626  0.57620  0.23484  1.0000
  H   H1        1.0  0.86646  0.98122  0.89200  1.0000
  H   H2        1.0  0.13275  0.01828  0.10754  1.0000
  H   H3        1.0  0.84497  0.59595  0.02657  1.0000
  H   H4        1.0  0.15538  0.40423  0.97337  1.0000
  H   H5        1.0  0.27826  0.92639  0.38373  1.0000
  H   H6        1.0  0.72177  0.07375  0.61641  1.0000
  H   H7        1.0  0.64360  0.50221  0.56194  1.0000
  H   H8        1.0  0.35624  0.49754  0.43798  1.0000
  H   H9        1.0  0.57612  0.61677  0.71133  1.0000
  H   H10       1.0  0.42404  0.38317  0.28875  1.0000
  H   H11       1.0  0.41402  0.45414  0.85333  1.0000
  H   H12       1.0  0.58654  0.54578  0.14719  1.0000
  H   H13       1.0  0.18673  0.16387  0.80295  1.0000
  H   H14       1.0  0.81352  0.83610  0.19730  1.0000
  H   H15       1.0  0.12440  0.89468  0.55671  1.0000
  H   H16       1.0  0.87530  0.10548  0.44321  1.0000
  H   H17       1.0  0.49961  0.18497  0.42393  1.0000
  H   H18       1.0  0.50073  0.81510  0.57639  1.0000
  C   C1        1.0  0.80109  0.58419  0.80721  1.0000
  C   C2        1.0  0.19919  0.41575  0.19259  1.0000
  C   C3        1.0  0.62054  0.51422  0.67388  1.0000
  C   C4        1.0  0.37959  0.48572  0.32618  1.0000
  C   C5        1.0  0.47959  0.34507  0.64620  1.0000
  C   C6        1.0  0.52064  0.65496  0.35404  1.0000
  C   C7        1.0  0.38588  0.33504  0.75015  1.0000
  C   C8        1.0  0.61449  0.66494  0.25019  1.0000
  C   C9        1.0  0.25733  0.17427  0.72118  1.0000
  C   C10       1.0  0.74287  0.82573  0.27904  1.0000
  C   C11       1.0  0.22058  0.02530  0.58681  1.0000
  C   C12       1.0  0.77937  0.97476  0.41321  1.0000
  C   C13       1.0  0.43658  0.19144  0.51294  1.0000
  C   C14       1.0  0.56365  0.80859  0.48728  1.0000
  C   C15       1.0  0.52242  0.06188  0.08769  1.0000
  C   C16       1.0  0.47678  0.93787  0.91203  1.0000
  N   N1        1.0  0.31028  0.03907  0.48743  1.0000
  N   N2        1.0  0.68976  0.96100  0.51268  1.0000
  O   O1        1.0  0.85030  0.88949  0.78204  1.0000
  O   O2        1.0  0.14885  0.10995  0.21768  1.0000
  O   O3        1.0  0.11677  0.88478  0.94959  1.0000
  O   O4        1.0  0.88309  0.11563  0.05022  1.0000
  O   O5        1.0  0.98417  0.71043  0.63716  1.0000
  O   O6        1.0  0.01626  0.29028  0.36272  1.0000
  O   O7        1.0  0.78000  0.26398  0.78442  1.0000
  O   O8        1.0  0.21987  0.73593  0.21546  1.0000
  O   O9        1.0  0.08861  0.51004  0.87943  1.0000
  O   O10       1.0  0.91119  0.48975  0.12104  1.0000
  O   O11       1.0  0.87220  0.35854  0.58679  1.0000
  O   O12       1.0  0.12854  0.64197  0.41328  1.0000
  O   O13       1.0  0.77976  0.63426  0.95867  1.0000
  O   O14       1.0  0.22083  0.36608  0.04134  1.0000
  O   O15       1.0  0.45969  0.99340  0.17186  1.0000
  O   O16       1.0  0.53960  0.00647  0.82793  1.0000
  O   O17       1.0  0.61881  0.22297  0.13677  1.0000
  O   O18       1.0  0.38051  0.77681  0.86288  1.0000
