data_image0
_chemical_formula_structural       Zn3P4H22C16N2O20
_chemical_formula_sum              "Zn3 P4 H22 C16 N2 O20"
_cell_length_a       9.028
_cell_length_b       9.01508
_cell_length_c       9.89936
_cell_angle_alpha    101.088
_cell_angle_beta     109.353
_cell_angle_gamma    110.091

_space_group_name_H-M_alt    "P 1"
_space_group_IT_number       1

loop_
  _space_group_symop_operation_xyz
  'x, y, z'

loop_
  _atom_site_type_symbol
  _atom_site_label
  _atom_site_symmetry_multiplicity
  _atom_site_fract_x
  _atom_site_fract_y
  _atom_site_fract_z
  _atom_site_occupancy
  Zn  Zn1       1.0  0.25936  0.23779  0.52889  1.0000
  Zn  Zn2       1.0  0.74065  0.76221  0.47111  1.0000
  Zn  Zn3       1.0  0.00000  1.00000  0.00000  1.0000
  P   P1        1.0  0.27834  0.96526  0.30348  1.0000
  P   P2        1.0  0.72166  0.03474  0.69652  1.0000
  P   P3        1.0  0.91256  0.89381  0.26302  1.0000
  P   P4        1.0  0.08744  0.10619  0.73698  1.0000
  H   H1        1.0  0.48419  0.88306  0.39033  1.0000
  H   H2        1.0  0.51581  0.11694  0.60967  1.0000
  H   H3        1.0  0.09327  0.85392  0.51676  1.0000
  H   H4        1.0  0.90673  0.14608  0.48324  1.0000
  H   H5        1.0  0.91188  0.19792  0.13703  1.0000
  H   H6        1.0  0.08812  0.80208  0.86297  1.0000
  H   H7        1.0  0.11562  0.29639  0.22491  1.0000
  H   H8        1.0  0.88438  0.70361  0.77509  1.0000
  H   H9        1.0  0.43707  0.28160  0.89173  1.0000
  H   H10       1.0  0.56293  0.71840  0.10828  1.0000
  H   H11       1.0  0.12051  0.60020  0.21564  1.0000
  H   H12       1.0  0.87948  0.39980  0.78436  1.0000
  H   H13       1.0  0.00617  0.66321  0.07155  1.0000
  H   H14       1.0  0.99383  0.33679  0.92845  1.0000
  H   H15       1.0  0.94923  0.46987  0.36906  1.0000
  H   H16       1.0  0.05077  0.53013  0.63094  1.0000
  H   H17       1.0  0.66236  0.24232  0.32105  1.0000
  H   H18       1.0  0.33764  0.75768  0.67895  1.0000
  H   H19       1.0  0.40004  0.15475  0.07095  1.0000
  H   H20       1.0  0.59996  0.84524  0.92905  1.0000
  H   H21       1.0  0.69536  0.49245  0.92357  1.0000
  H   H22       1.0  0.30464  0.50755  0.07643  1.0000
  C   C1        1.0  0.07826  0.80914  0.30385  1.0000
  C   C2        1.0  0.92174  0.19086  0.69615  1.0000
  C   C3        1.0  0.01631  0.64062  0.17863  1.0000
  C   C4        1.0  0.98369  0.35938  0.82138  1.0000
  C   C5        1.0  0.84744  0.50360  0.15327  1.0000
  C   C6        1.0  0.15256  0.49640  0.84672  1.0000
  C   C7        1.0  0.83357  0.42792  0.26296  1.0000
  C   C8        1.0  0.16643  0.57207  0.73704  1.0000
  C   C9        1.0  0.67458  0.30130  0.23651  1.0000
  C   C10       1.0  0.32541  0.69870  0.76350  1.0000
  C   C11       1.0  0.52986  0.24959  0.09958  1.0000
  C   C12       1.0  0.47014  0.75040  0.90042  1.0000
  C   C13       1.0  0.69868  0.44513  0.01737  1.0000
  C   C14       1.0  0.30132  0.55487  0.98263  1.0000
  C   C15       1.0  0.42569  0.48470  0.42327  1.0000
  C   C16       1.0  0.57431  0.51531  0.57672  1.0000
  N   N1        1.0  0.54685  0.32206  0.99509  1.0000
  N   N2        1.0  0.45315  0.67794  0.00491  1.0000
  O   O1        1.0  0.39638  0.87431  0.28841  1.0000
  O   O2        1.0  0.60362  0.12569  0.71159  1.0000
  O   O3        1.0  0.23026  0.02548  0.17056  1.0000
  O   O4        1.0  0.76974  0.97452  0.82944  1.0000
  O   O5        1.0  0.37724  0.10571  0.46218  1.0000
  O   O6        1.0  0.62276  0.89429  0.53782  1.0000
  O   O7        1.0  0.00080  0.07456  0.37898  1.0000
  O   O8        1.0  0.99920  0.92544  0.62102  1.0000
  O   O9        1.0  0.75328  0.77671  0.28146  1.0000
  O   O10       1.0  0.24672  0.22329  0.71854  1.0000
  O   O11       1.0  0.84906  0.88324  0.09704  1.0000
  O   O12       1.0  0.15094  0.11676  0.90296  1.0000
  O   O13       1.0  0.12189  0.78392  0.44755  1.0000
  O   O14       1.0  0.87811  0.21608  0.55245  1.0000
  O   O15       1.0  0.27011  0.38954  0.40090  1.0000
  O   O16       1.0  0.72989  0.61046  0.59909  1.0000
  O   O17       1.0  0.46541  0.55300  0.33370  1.0000
  O   O18       1.0  0.53459  0.44700  0.66629  1.0000
  O   O19       1.0  0.01672  0.23803  0.12002  1.0000
  O   O20       1.0  0.98328  0.76197  0.87998  1.0000
