data_image0
_chemical_formula_structural       In4H20C16O28
_chemical_formula_sum              "In4 H20 C16 O28"
_cell_length_a       7.11285
_cell_length_b       9.24918
_cell_length_c       10.5464
_cell_angle_alpha    89.9994
_cell_angle_beta     89.9999
_cell_angle_gamma    93.657

_space_group_name_H-M_alt    "P 1"
_space_group_IT_number       1

loop_
  _space_group_symop_operation_xyz
  'x, y, z'

loop_
  _atom_site_type_symbol
  _atom_site_label
  _atom_site_symmetry_multiplicity
  _atom_site_fract_x
  _atom_site_fract_y
  _atom_site_fract_z
  _atom_site_occupancy
  In  In1       1.0  0.32071  0.24994  0.20412  1.0000
  In  In2       1.0  0.67929  0.75006  0.70411  1.0000
  In  In3       1.0  0.51795  0.73266  0.01516  1.0000
  In  In4       1.0  0.48204  0.26733  0.51515  1.0000
  H   H1        1.0  0.16430  0.32245  0.93440  1.0000
  H   H2        1.0  0.83570  0.67755  0.43440  1.0000
  H   H3        1.0  0.22952  0.16692  0.96001  1.0000
  H   H4        1.0  0.77049  0.83309  0.46001  1.0000
  H   H5        1.0  0.11588  0.64703  0.97949  1.0000
  H   H6        1.0  0.88412  0.35297  0.47950  1.0000
  H   H7        1.0  0.23395  0.58407  0.86671  1.0000
  H   H8        1.0  0.76604  0.41593  0.36671  1.0000
  H   H9        1.0  0.99505  0.08257  0.18406  1.0000
  H   H10       1.0  0.00495  0.91743  0.68406  1.0000
  H   H11       1.0  0.08880  0.38986  0.64100  1.0000
  H   H12       1.0  0.91119  0.61015  0.14100  1.0000
  H   H13       1.0  0.06806  0.87325  0.31299  1.0000
  H   H14       1.0  0.93194  0.12674  0.81299  1.0000
  H   H15       1.0  0.39173  0.89617  0.41051  1.0000
  H   H16       1.0  0.60828  0.10383  0.91052  1.0000
  H   H17       1.0  0.34184  0.62150  0.35027  1.0000
  H   H18       1.0  0.65816  0.37850  0.85027  1.0000
  H   H19       1.0  0.10312  0.61670  0.52209  1.0000
  H   H20       1.0  0.89688  0.38331  0.02209  1.0000
  C   C1        1.0  0.28668  0.92629  0.17466  1.0000
  C   C2        1.0  0.71333  0.07371  0.67466  1.0000
  C   C3        1.0  0.16910  0.96382  0.28961  1.0000
  C   C4        1.0  0.83090  0.03617  0.78962  1.0000
  C   C5        1.0  0.31141  0.99380  0.39836  1.0000
  C   C6        1.0  0.68859  0.00619  0.89836  1.0000
  C   C7        1.0  0.21029  0.01196  0.52629  1.0000
  C   C8        1.0  0.78972  0.98804  0.02630  1.0000
  C   C9        1.0  0.09793  0.50060  0.28616  1.0000
  C   C10       1.0  0.90206  0.49940  0.78616  1.0000
  C   C11       1.0  0.26766  0.51677  0.37612  1.0000
  C   C12       1.0  0.73233  0.48323  0.87612  1.0000
  C   C13       1.0  0.19764  0.52816  0.51359  1.0000
  C   C14       1.0  0.80236  0.47184  0.01359  1.0000
  C   C15       1.0  0.36851  0.56479  0.59648  1.0000
  C   C16       1.0  0.63150  0.43520  0.09649  1.0000
  O   O1        1.0  0.25988  0.26903  0.97944  1.0000
  O   O2        1.0  0.74013  0.73098  0.47944  1.0000
  O   O3        1.0  0.23631  0.66030  0.93086  1.0000
  O   O4        1.0  0.76368  0.33970  0.43087  1.0000
  O   O5        1.0  0.34950  0.02882  0.10361  1.0000
  O   O6        1.0  0.65050  0.97117  0.60362  1.0000
  O   O7        1.0  0.32264  0.79378  0.16223  1.0000
  O   O8        1.0  0.67735  0.20622  0.66223  1.0000
  O   O9        1.0  0.07744  0.09456  0.26721  1.0000
  O   O10       1.0  0.92257  0.90544  0.76721  1.0000
  O   O11       1.0  0.43362  0.11355  0.36419  1.0000
  O   O12       1.0  0.56637  0.88645  0.86419  1.0000
  O   O13       1.0  0.26339  0.11818  0.59822  1.0000
  O   O14       1.0  0.73661  0.88182  0.09823  1.0000
  O   O15       1.0  0.08320  0.91633  0.55491  1.0000
  O   O16       1.0  0.91681  0.08366  0.05491  1.0000
  O   O17       1.0  0.09814  0.40333  0.20059  1.0000
  O   O18       1.0  0.90185  0.59667  0.70059  1.0000
  O   O19       1.0  0.96516  0.58570  0.29714  1.0000
  O   O20       1.0  0.03484  0.41430  0.79713  1.0000
  O   O21       1.0  0.38705  0.40294  0.36139  1.0000
  O   O22       1.0  0.61294  0.59707  0.86140  1.0000
  O   O23       1.0  0.10852  0.39057  0.54666  1.0000
  O   O24       1.0  0.89148  0.60943  0.04666  1.0000
  O   O25       1.0  0.47674  0.46567  0.62715  1.0000
  O   O26       1.0  0.52326  0.53433  0.12715  1.0000
  O   O27       1.0  0.40008  0.69694  0.62758  1.0000
  O   O28       1.0  0.59993  0.30307  0.12759  1.0000
