data_image0
_chemical_formula_structural       Sb2H16C14S10Br2O2
_chemical_formula_sum              "Sb2 H16 C14 S10 Br2 O2"
_cell_length_a       7.79759
_cell_length_b       8.81209
_cell_length_c       10.2521
_cell_angle_alpha    99.1769
_cell_angle_beta     102.949
_cell_angle_gamma    106.034

_space_group_name_H-M_alt    "P 1"
_space_group_IT_number       1

loop_
  _space_group_symop_operation_xyz
  'x, y, z'

loop_
  _atom_site_type_symbol
  _atom_site_label
  _atom_site_symmetry_multiplicity
  _atom_site_fract_x
  _atom_site_fract_y
  _atom_site_fract_z
  _atom_site_occupancy
  Sb  Sb1       1.0  0.29970  0.49049  0.31235  1.0000
  Sb  Sb2       1.0  0.70030  0.50952  0.68765  1.0000
  H   H1        1.0  0.27674  0.38836  0.85992  1.0000
  H   H2        1.0  0.72328  0.61164  0.14009  1.0000
  H   H3        1.0  0.10304  0.39902  0.94668  1.0000
  H   H4        1.0  0.89696  0.60098  0.05331  1.0000
  H   H5        1.0  0.09665  0.10230  0.80395  1.0000
  H   H6        1.0  0.90336  0.89770  0.19605  1.0000
  H   H7        1.0  0.04121  0.12063  0.96328  1.0000
  H   H8        1.0  0.95880  0.87937  0.03671  1.0000
  H   H9        1.0  0.29738  0.03176  0.04004  1.0000
  H   H10       1.0  0.70263  0.96824  0.95996  1.0000
  H   H11       1.0  0.39335  0.08370  0.90618  1.0000
  H   H12       1.0  0.60668  0.91631  0.09383  1.0000
  H   H13       1.0  0.50783  0.28854  0.18588  1.0000
  H   H14       1.0  0.49217  0.71146  0.81413  1.0000
  H   H15       1.0  0.58124  0.33823  0.04113  1.0000
  H   H16       1.0  0.41877  0.66179  0.95889  1.0000
  C   C1        1.0  0.24658  0.82734  0.46440  1.0000
  C   C2        1.0  0.75340  0.17266  0.53559  1.0000
  C   C3        1.0  0.27453  0.86407  0.34347  1.0000
  C   C4        1.0  0.72545  0.13593  0.65652  1.0000
  C   C5        1.0  0.27013  0.13177  0.49233  1.0000
  C   C6        1.0  0.72987  0.86823  0.50766  1.0000
  C   C7        1.0  0.21309  0.34601  0.93880  1.0000
  C   C8        1.0  0.78691  0.65398  0.06119  1.0000
  C   C9        1.0  0.15118  0.16184  0.91391  1.0000
  C   C10       1.0  0.84883  0.83815  0.08609  1.0000
  C   C11       1.0  0.32856  0.12643  0.98297  1.0000
  C   C12       1.0  0.67146  0.87357  0.01705  1.0000
  C   C13       1.0  0.45902  0.29080  0.07712  1.0000
  C   C14       1.0  0.54099  0.70920  0.92289  1.0000
  S   S1        1.0  0.23157  0.64557  0.51130  1.0000
  S   S2        1.0  0.76840  0.35443  0.48869  1.0000
  S   S3        1.0  0.30025  0.73523  0.20799  1.0000
  S   S4        1.0  0.69974  0.26477  0.79200  1.0000
  S   S5        1.0  0.23372  0.98480  0.58375  1.0000
  S   S6        1.0  0.76626  0.01520  0.41624  1.0000
  S   S7        1.0  0.29213  0.06305  0.33256  1.0000
  S   S8        1.0  0.70786  0.93695  0.66744  1.0000
  S   S9        1.0  0.28295  0.32281  0.55750  1.0000
  S   S10       1.0  0.71704  0.67719  0.44250  1.0000
  Br  Br1       1.0  0.94959  0.30488  0.19215  1.0000
  Br  Br2       1.0  0.05040  0.69512  0.80783  1.0000
  O   O1        1.0  0.35372  0.40381  0.07132  1.0000
  O   O2        1.0  0.64628  0.59619  0.92868  1.0000
