data_image0
_chemical_formula_structural       FeCu2H16C28N12
_chemical_formula_sum              "Fe1 Cu2 H16 C28 N12"
_cell_length_a       6.77508
_cell_length_b       7.61464
_cell_length_c       13.8923
_cell_angle_alpha    74.0884
_cell_angle_beta     90.7811
_cell_angle_gamma    79.994

_space_group_name_H-M_alt    "P 1"
_space_group_IT_number       1

loop_
  _space_group_symop_operation_xyz
  'x, y, z'

loop_
  _atom_site_type_symbol
  _atom_site_label
  _atom_site_symmetry_multiplicity
  _atom_site_fract_x
  _atom_site_fract_y
  _atom_site_fract_z
  _atom_site_occupancy
  Fe  Fe1       1.0  0.99180  0.00013  0.98868  1.0000
  Cu  Cu1       1.0  0.56316  0.52543  0.07721  1.0000
  Cu  Cu2       1.0  0.43094  0.46929  0.91547  1.0000
  H   H1        1.0  0.90726  0.34118  0.19967  1.0000
  H   H2        1.0  0.08632  0.65814  0.79761  1.0000
  H   H3        1.0  0.18022  0.40204  0.08475  1.0000
  H   H4        1.0  0.80988  0.59791  0.91033  1.0000
  H   H5        1.0  0.52758  0.51673  0.30105  1.0000
  H   H6        1.0  0.46878  0.48526  0.69100  1.0000
  H   H7        1.0  0.14667  0.05870  0.79386  1.0000
  H   H8        1.0  0.86856  0.92436  0.21198  1.0000
  H   H9        1.0  0.57676  0.03974  0.89620  1.0000
  H   H10       1.0  0.43850  0.96174  0.11642  1.0000
  H   H11       1.0  0.94799  0.37227  0.37562  1.0000
  H   H12       1.0  0.05109  0.62732  0.62131  1.0000
  H   H13       1.0  0.65869  0.08660  0.58200  1.0000
  H   H14       1.0  0.33655  0.92556  0.42791  1.0000
  H   H15       1.0  0.43212  0.07237  0.72442  1.0000
  H   H16       1.0  0.57280  0.94108  0.29038  1.0000
  C   C1        1.0  0.72174  0.70995  0.06898  1.0000
  C   C2        1.0  0.27180  0.28644  0.92321  1.0000
  C   C3        1.0  0.68583  0.31007  0.03742  1.0000
  C   C4        1.0  0.31547  0.68254  0.95987  1.0000
  C   C5        1.0  0.04245  0.37742  0.22633  1.0000
  C   C6        1.0  0.95198  0.62233  0.76984  1.0000
  C   C7        1.0  0.19422  0.41210  0.16123  1.0000
  C   C8        1.0  0.79820  0.58810  0.83372  1.0000
  C   C9        1.0  0.38930  0.47653  0.28092  1.0000
  C   C10       1.0  0.60654  0.52467  0.71242  1.0000
  C   C11       1.0  0.24181  0.44504  0.35060  1.0000
  C   C12       1.0  0.75594  0.55633  0.64389  1.0000
  C   C13       1.0  0.98968  0.06173  0.77522  1.0000
  C   C14       1.0  0.02306  0.92873  0.23265  1.0000
  C   C15       1.0  0.67032  0.05172  0.83261  1.0000
  C   C16       1.0  0.34268  0.94789  0.17945  1.0000
  C   C17       1.0  0.06453  0.39395  0.32271  1.0000
  C   C18       1.0  0.93281  0.60615  0.67326  1.0000
  C   C19       1.0  0.92008  0.07510  0.67782  1.0000
  C   C20       1.0  0.08362  0.92490  0.33039  1.0000
  C   C21       1.0  0.26518  0.47119  0.44752  1.0000
  C   C22       1.0  0.73426  0.53135  0.54664  1.0000
  C   C23       1.0  0.71547  0.07913  0.65697  1.0000
  C   C24       1.0  0.28590  0.92733  0.35284  1.0000
  C   C25       1.0  0.59170  0.06913  0.73659  1.0000
  C   C26       1.0  0.41576  0.93770  0.27572  1.0000
  C   C27       1.0  0.06790  0.07386  0.60597  1.0000
  C   C28       1.0  0.93253  0.92952  0.40033  1.0000
  N   N1        1.0  0.82598  0.82105  0.04313  1.0000
  N   N2        1.0  0.16500  0.17652  0.94370  1.0000
  N   N3        1.0  0.79983  0.18809  0.01988  1.0000
  N   N4        1.0  0.19289  0.80801  0.96786  1.0000
  N   N5        1.0  0.86847  0.04691  0.85217  1.0000
  N   N6        1.0  0.15004  0.94158  0.15986  1.0000
  N   N7        1.0  0.36502  0.46137  0.18754  1.0000
  N   N8        1.0  0.62827  0.53894  0.80616  1.0000
  N   N9        1.0  0.27682  0.49616  0.52645  1.0000
  N   N10       1.0  0.72281  0.50769  0.46737  1.0000
  N   N11       1.0  0.19930  0.06584  0.55291  1.0000
  N   N12       1.0  0.79914  0.94112  0.45199  1.0000
