data_image0
_chemical_formula_structural       Zn4H22C34N6O14
_chemical_formula_sum              "Zn4 H22 C34 N6 O14"
_cell_length_a       8.95159
_cell_length_b       9.18744
_cell_length_c       11.3503
_cell_angle_alpha    101.235
_cell_angle_beta     113.207
_cell_angle_gamma    99.3367

_space_group_name_H-M_alt    "P 1"
_space_group_IT_number       1

loop_
  _space_group_symop_operation_xyz
  'x, y, z'

loop_
  _atom_site_type_symbol
  _atom_site_label
  _atom_site_symmetry_multiplicity
  _atom_site_fract_x
  _atom_site_fract_y
  _atom_site_fract_z
  _atom_site_occupancy
  Zn  Zn1       1.0  0.48722  0.67034  0.99445  1.0000
  Zn  Zn2       1.0  0.51278  0.32966  0.00555  1.0000
  Zn  Zn3       1.0  0.34754  0.57110  0.18504  1.0000
  Zn  Zn4       1.0  0.65246  0.42890  0.81496  1.0000
  H   H1        1.0  0.66760  0.67438  0.62125  1.0000
  H   H2        1.0  0.33240  0.32562  0.37875  1.0000
  H   H3        1.0  0.41878  0.92059  0.80686  1.0000
  H   H4        1.0  0.58122  0.07941  0.19314  1.0000
  H   H5        1.0  0.78342  0.03836  0.68565  1.0000
  H   H6        1.0  0.21658  0.96164  0.31435  1.0000
  H   H7        1.0  0.25035  0.81736  0.48454  1.0000
  H   H8        1.0  0.74965  0.18265  0.51546  1.0000
  H   H9        1.0  0.22100  0.04193  0.92102  1.0000
  H   H10       1.0  0.77900  0.95807  0.07898  1.0000
  H   H11       1.0  0.97892  0.79222  0.10956  1.0000
  H   H12       1.0  0.02108  0.20778  0.89044  1.0000
  H   H13       1.0  0.29797  0.55068  0.53736  1.0000
  H   H14       1.0  0.70203  0.44932  0.46265  1.0000
  H   H15       1.0  0.77667  0.48272  0.27776  1.0000
  H   H16       1.0  0.22333  0.51728  0.72224  1.0000
  H   H17       1.0  0.86251  0.76366  0.53236  1.0000
  H   H18       1.0  0.13749  0.23634  0.46764  1.0000
  H   H19       1.0  0.87284  0.05933  0.28344  1.0000
  H   H20       1.0  0.12716  0.94067  0.71656  1.0000
  H   H21       1.0  0.23115  0.45954  0.93219  1.0000
  H   H22       1.0  0.76885  0.54046  0.06781  1.0000
  C   C1        1.0  0.61278  0.71187  0.68761  1.0000
  C   C2        1.0  0.38722  0.28813  0.31239  1.0000
  C   C3        1.0  0.48145  0.83676  0.78084  1.0000
  C   C4        1.0  0.51855  0.16324  0.21916  1.0000
  C   C5        1.0  0.51857  0.92080  0.59272  1.0000
  C   C6        1.0  0.48143  0.07920  0.40728  1.0000
  C   C7        1.0  0.66072  0.02101  0.60331  1.0000
  C   C8        1.0  0.33928  0.97899  0.39669  1.0000
  C   C9        1.0  0.35825  0.89838  0.49107  1.0000
  C   C10       1.0  0.64175  0.10162  0.50893  1.0000
  C   C11       1.0  0.23457  0.81039  0.03816  1.0000
  C   C12       1.0  0.76543  0.18961  0.96184  1.0000
  C   C13       1.0  0.11218  0.90734  0.01706  1.0000
  C   C14       1.0  0.88782  0.09266  0.98294  1.0000
  C   C15       1.0  0.12314  0.02326  0.95461  1.0000
  C   C16       1.0  0.87686  0.97674  0.04539  1.0000
  C   C17       1.0  0.98794  0.88415  0.06261  1.0000
  C   C18       1.0  0.01206  0.11585  0.93739  1.0000
  C   C19       1.0  0.08577  0.54266  0.28334  1.0000
  C   C20       1.0  0.91423  0.45734  0.71666  1.0000
  C   C21       1.0  0.04207  0.51999  0.39559  1.0000
  C   C22       1.0  0.95793  0.48001  0.60441  1.0000
  C   C23       1.0  0.16749  0.53009  0.52194  1.0000
  C   C24       1.0  0.83251  0.46991  0.47806  1.0000
  C   C25       1.0  0.87401  0.48929  0.37505  1.0000
  C   C26       1.0  0.12599  0.51072  0.62495  1.0000
  C   C27       1.0  0.68661  0.79585  0.28521  1.0000
  C   C28       1.0  0.31339  0.20415  0.71479  1.0000
  C   C29       1.0  0.84906  0.89997  0.39619  1.0000
  C   C30       1.0  0.15094  0.10003  0.60381  1.0000
  C   C31       1.0  0.92261  0.86774  0.51883  1.0000
  C   C32       1.0  0.07739  0.13226  0.48118  1.0000
  C   C33       1.0  0.92841  0.03324  0.37840  1.0000
  C   C34       1.0  0.07159  0.96676  0.62160  1.0000
  N   N1        1.0  0.60056  0.64745  0.77847  1.0000
  N   N2        1.0  0.39944  0.35255  0.22153  1.0000
  N   N3        1.0  0.51894  0.72626  0.83732  1.0000
  N   N4        1.0  0.48106  0.27374  0.16268  1.0000
  N   N5        1.0  0.53931  0.83125  0.68586  1.0000
  N   N6        1.0  0.46069  0.16875  0.31414  1.0000
  O   O1        1.0  0.34788  0.48300  0.00398  1.0000
  O   O2        1.0  0.65212  0.51700  0.99602  1.0000
  O   O3        1.0  0.30784  0.79797  0.96168  1.0000
  O   O4        1.0  0.69216  0.20203  0.03832  1.0000
  O   O5        1.0  0.25805  0.75116  0.13430  1.0000
  O   O6        1.0  0.74195  0.24884  0.86570  1.0000
  O   O7        1.0  0.24211  0.55197  0.30944  1.0000
  O   O8        1.0  0.75790  0.44803  0.69056  1.0000
  O   O9        1.0  0.97551  0.55166  0.17695  1.0000
  O   O10       1.0  0.02449  0.44834  0.82305  1.0000
  O   O11       1.0  0.59946  0.69347  0.31046  1.0000
  O   O12       1.0  0.40054  0.30653  0.68954  1.0000
  O   O13       1.0  0.64798  0.82049  0.17090  1.0000
  O   O14       1.0  0.35202  0.17951  0.82910  1.0000
