data_image0
_chemical_formula_structural       Li2H28C28S4N2O6
_chemical_formula_sum              "Li2 H28 C28 S4 N2 O6"
_cell_length_a       7.11594
_cell_length_b       10.5137
_cell_length_c       12.1096
_cell_angle_alpha    103.968
_cell_angle_beta     97.302
_cell_angle_gamma    98.4898

_space_group_name_H-M_alt    "P 1"
_space_group_IT_number       1

loop_
  _space_group_symop_operation_xyz
  'x, y, z'

loop_
  _atom_site_type_symbol
  _atom_site_label
  _atom_site_symmetry_multiplicity
  _atom_site_fract_x
  _atom_site_fract_y
  _atom_site_fract_z
  _atom_site_occupancy
  Li  Li1       1.0  0.80017  0.55216  0.06478  1.0000
  Li  Li2       1.0  0.19983  0.44784  0.93521  1.0000
  H   H1        1.0  0.29312  0.92211  0.92702  1.0000
  H   H2        1.0  0.70688  0.07789  0.07298  1.0000
  H   H3        1.0  0.32485  0.16995  0.97011  1.0000
  H   H4        1.0  0.67515  0.83005  0.02989  1.0000
  H   H5        1.0  0.25537  0.29731  0.15633  1.0000
  H   H6        1.0  0.74462  0.70269  0.84366  1.0000
  H   H7        1.0  0.14533  0.17742  0.29878  1.0000
  H   H8        1.0  0.85467  0.82258  0.70122  1.0000
  H   H9        1.0  0.12129  0.93062  0.25663  1.0000
  H   H10       1.0  0.87871  0.06938  0.74336  1.0000
  H   H11       1.0  0.68208  0.66943  0.39335  1.0000
  H   H12       1.0  0.31792  0.33056  0.60664  1.0000
  H   H13       1.0  0.60151  0.69341  0.59131  1.0000
  H   H14       1.0  0.39850  0.30658  0.40869  1.0000
  H   H15       1.0  0.99776  0.60048  0.44837  1.0000
  H   H16       1.0  0.00224  0.39952  0.55164  1.0000
  H   H17       1.0  0.07652  0.57229  0.25104  1.0000
  H   H18       1.0  0.92347  0.42771  0.74896  1.0000
  H   H19       1.0  0.05968  0.66100  0.87042  1.0000
  H   H20       1.0  0.94031  0.33900  0.12958  1.0000
  H   H21       1.0  0.32578  0.68039  0.89730  1.0000
  H   H22       1.0  0.67421  0.31962  0.10270  1.0000
  H   H23       1.0  0.29142  0.59092  0.69230  1.0000
  H   H24       1.0  0.70859  0.40909  0.30770  1.0000
  H   H25       1.0  0.32624  0.76512  0.71111  1.0000
  H   H26       1.0  0.67377  0.23489  0.28889  1.0000
  H   H27       1.0  0.09328  0.66511  0.65403  1.0000
  H   H28       1.0  0.90673  0.33490  0.34597  1.0000
  C   C1        1.0  0.18938  0.65470  0.92631  1.0000
  C   C2        1.0  0.81062  0.34530  0.07369  1.0000
  C   C3        1.0  0.21019  0.91508  0.09074  1.0000
  C   C4        1.0  0.78981  0.08492  0.90925  1.0000
  C   C5        1.0  0.26419  0.97964  0.00881  1.0000
  C   C6        1.0  0.73580  0.02036  0.99119  1.0000
  C   C7        1.0  0.28089  0.11814  0.03323  1.0000
  C   C8        1.0  0.71911  0.88186  0.96677  1.0000
  C   C9        1.0  0.24095  0.18928  0.13816  1.0000
  C   C10       1.0  0.75904  0.81072  0.86184  1.0000
  C   C11       1.0  0.18168  0.12223  0.21819  1.0000
  C   C12       1.0  0.81832  0.87777  0.78181  1.0000
  C   C13       1.0  0.16705  0.98450  0.19541  1.0000
  C   C14       1.0  0.83295  0.01550  0.80458  1.0000
  C   C15       1.0  0.38433  0.61929  0.31135  1.0000
  C   C16       1.0  0.61566  0.38071  0.68865  1.0000
  C   C17       1.0  0.53271  0.65386  0.40663  1.0000
  C   C18       1.0  0.46728  0.34614  0.59336  1.0000
  C   C19       1.0  0.48657  0.66793  0.51674  1.0000
  C   C20       1.0  0.51344  0.33207  0.48326  1.0000
  C   C21       1.0  0.29428  0.65050  0.53401  1.0000
  C   C22       1.0  0.70573  0.34951  0.46599  1.0000
  C   C23       1.0  0.14830  0.61503  0.43676  1.0000
  C   C24       1.0  0.85170  0.38497  0.56325  1.0000
  C   C25       1.0  0.19139  0.59838  0.32562  1.0000
  C   C26       1.0  0.80861  0.40162  0.67438  1.0000
  C   C27       1.0  0.24810  0.66908  0.65378  1.0000
  C   C28       1.0  0.75191  0.33093  0.34622  1.0000
  S   S1        1.0  0.19424  0.73799  0.06155  1.0000
  S   S2        1.0  0.80576  0.26201  0.93845  1.0000
  S   S3        1.0  0.44214  0.60771  0.17126  1.0000
  S   S4        1.0  0.55786  0.39229  0.82873  1.0000
  N   N1        1.0  0.39573  0.73839  0.13760  1.0000
  N   N2        1.0  0.60427  0.26161  0.86240  1.0000
  O   O1        1.0  0.01818  0.69308  0.10492  1.0000
  O   O2        1.0  0.98182  0.30692  0.89509  1.0000
  O   O3        1.0  0.32593  0.48270  0.09508  1.0000
  O   O4        1.0  0.67407  0.51730  0.90492  1.0000
  O   O5        1.0  0.65050  0.61542  0.18429  1.0000
  O   O6        1.0  0.34950  0.38458  0.81571  1.0000
