data_image0
_chemical_formula_structural       Mn2H14C10N2Cl4O4
_chemical_formula_sum              "Mn2 H14 C10 N2 Cl4 O4"
_cell_length_a       6.83212
_cell_length_b       6.70856
_cell_length_c       9.94221
_cell_angle_alpha    98.8747
_cell_angle_beta     110.722
_cell_angle_gamma    95.0879

_space_group_name_H-M_alt    "P 1"
_space_group_IT_number       1

loop_
  _space_group_symop_operation_xyz
  'x, y, z'

loop_
  _atom_site_type_symbol
  _atom_site_label
  _atom_site_symmetry_multiplicity
  _atom_site_fract_x
  _atom_site_fract_y
  _atom_site_fract_z
  _atom_site_occupancy
  Mn  Mn1       1.0  0.24356  0.51082  0.49652  1.0000
  Mn  Mn2       1.0  0.75643  0.48917  0.50347  1.0000
  H   H1        1.0  0.72213  0.42261  0.82454  1.0000
  H   H2        1.0  0.27793  0.57740  0.17547  1.0000
  H   H3        1.0  0.11771  0.21419  0.61034  1.0000
  H   H4        1.0  0.88228  0.78580  0.38965  1.0000
  H   H5        1.0  0.25750  0.11107  0.53311  1.0000
  H   H6        1.0  0.74250  0.88892  0.46689  1.0000
  H   H7        1.0  0.85701  0.57084  0.10044  1.0000
  H   H8        1.0  0.14304  0.42920  0.89958  1.0000
  H   H9        1.0  0.84990  0.94381  0.18051  1.0000
  H   H10       1.0  0.15007  0.05620  0.81946  1.0000
  H   H11       1.0  0.69878  0.14869  0.98915  1.0000
  H   H12       1.0  0.30118  0.85129  0.01084  1.0000
  H   H13       1.0  0.56671  0.97467  0.72007  1.0000
  H   H14       1.0  0.43328  0.02533  0.27992  1.0000
  C   C1        1.0  0.72286  0.58034  0.87176  1.0000
  C   C2        1.0  0.27715  0.41964  0.12825  1.0000
  C   C3        1.0  0.79585  0.66603  0.01999  1.0000
  C   C4        1.0  0.20414  0.33396  0.98002  1.0000
  C   C5        1.0  0.79027  0.87271  0.06469  1.0000
  C   C6        1.0  0.20973  0.12733  0.93533  1.0000
  C   C7        1.0  0.70768  0.98793  0.95810  1.0000
  C   C8        1.0  0.29231  0.01211  0.04189  1.0000
  C   C9        1.0  0.63321  0.89788  0.81082  1.0000
  C   C10       1.0  0.36676  0.10208  0.18916  1.0000
  N   N1        1.0  0.64516  0.69798  0.77122  1.0000
  N   N2        1.0  0.35483  0.30199  0.22875  1.0000
  Cl  Cl1       1.0  0.20321  0.82256  0.39153  1.0000
  Cl  Cl2       1.0  0.79679  0.17744  0.60846  1.0000
  Cl  Cl3       1.0  0.11017  0.65639  0.69149  1.0000
  Cl  Cl4       1.0  0.88982  0.34360  0.30851  1.0000
  O   O1        1.0  0.57495  0.61495  0.62796  1.0000
  O   O2        1.0  0.42508  0.38508  0.37206  1.0000
  O   O3        1.0  0.25553  0.23837  0.59835  1.0000
  O   O4        1.0  0.74447  0.76162  0.40166  1.0000
