data_image0
_chemical_formula_structural       Zn2H26C38N10O8
_chemical_formula_sum              "Zn2 H26 C38 N10 O8"
_cell_length_a       9.13832
_cell_length_b       11.1288
_cell_length_c       11.6192
_cell_angle_alpha    84.7066
_cell_angle_beta     68.8792
_cell_angle_gamma    71.2598

_space_group_name_H-M_alt    "P 1"
_space_group_IT_number       1

loop_
  _space_group_symop_operation_xyz
  'x, y, z'

loop_
  _atom_site_type_symbol
  _atom_site_label
  _atom_site_symmetry_multiplicity
  _atom_site_fract_x
  _atom_site_fract_y
  _atom_site_fract_z
  _atom_site_occupancy
  Zn  Zn1       1.0  0.40017  0.30483  0.30863  1.0000
  Zn  Zn2       1.0  0.59984  0.69518  0.69137  1.0000
  H   H1        1.0  0.92680  0.72791  0.05136  1.0000
  H   H2        1.0  0.07319  0.27209  0.94864  1.0000
  H   H3        1.0  0.37849  0.42990  0.86972  1.0000
  H   H4        1.0  0.62150  0.57010  0.13028  1.0000
  H   H5        1.0  0.03578  0.63271  0.68769  1.0000
  H   H6        1.0  0.96421  0.36728  0.31231  1.0000
  H   H7        1.0  0.13417  0.59752  0.37583  1.0000
  H   H8        1.0  0.86583  0.40248  0.62417  1.0000
  H   H9        1.0  0.02354  0.72721  0.19513  1.0000
  H   H10       1.0  0.97646  0.27278  0.80487  1.0000
  H   H11       1.0  0.38339  0.37080  0.04898  1.0000
  H   H12       1.0  0.61662  0.62920  0.95102  1.0000
  H   H13       1.0  0.55872  0.37581  0.68074  1.0000
  H   H14       1.0  0.44128  0.62418  0.31926  1.0000
  H   H15       1.0  0.65284  0.26385  0.45037  1.0000
  H   H16       1.0  0.34716  0.73615  0.54964  1.0000
  H   H17       1.0  0.14652  0.47249  0.56211  1.0000
  H   H18       1.0  0.85348  0.52751  0.43788  1.0000
  H   H19       1.0  0.82048  0.09092  0.87545  1.0000
  H   H20       1.0  0.17952  0.90907  0.12456  1.0000
  H   H21       1.0  0.10207  0.93360  0.77891  1.0000
  H   H22       1.0  0.89793  0.06640  0.22109  1.0000
  H   H23       1.0  0.26814  0.96668  0.32662  1.0000
  H   H24       1.0  0.73186  0.03332  0.67338  1.0000
  H   H25       1.0  0.14697  0.78768  0.39604  1.0000
  H   H26       1.0  0.85304  0.21233  0.60395  1.0000
  C   C1        1.0  0.01337  0.66808  0.97069  1.0000
  C   C2        1.0  0.98662  0.33191  0.02931  1.0000
  C   C3        1.0  0.15906  0.57762  0.97447  1.0000
  C   C4        1.0  0.84094  0.42239  0.02554  1.0000
  C   C5        1.0  0.26534  0.50213  0.86937  1.0000
  C   C6        1.0  0.73466  0.49787  0.13063  1.0000
  C   C7        1.0  0.22045  0.52092  0.76505  1.0000
  C   C8        1.0  0.77955  0.47907  0.23495  1.0000
  C   C9        1.0  0.07312  0.61472  0.76864  1.0000
  C   C10       1.0  0.92687  0.38528  0.23136  1.0000
  C   C11       1.0  0.17296  0.57021  0.27932  1.0000
  C   C12       1.0  0.82703  0.42979  0.72068  1.0000
  C   C13       1.0  0.11174  0.63425  0.19186  1.0000
  C   C14       1.0  0.88825  0.36575  0.80814  1.0000
  C   C15       1.0  0.30145  0.45129  0.11074  1.0000
  C   C16       1.0  0.69855  0.54871  0.88926  1.0000
  C   C17       1.0  0.48839  0.37799  0.62256  1.0000
  C   C18       1.0  0.51161  0.62201  0.37744  1.0000
  C   C19       1.0  0.53399  0.32448  0.50847  1.0000
  C   C20       1.0  0.46601  0.67552  0.49153  1.0000
  C   C21       1.0  0.27172  0.43160  0.56148  1.0000
  C   C22       1.0  0.72828  0.56840  0.43852  1.0000
  C   C23       1.0  0.84355  0.08815  0.05338  1.0000
  C   C24       1.0  0.15646  0.91185  0.94663  1.0000
  C   C25       1.0  0.90098  0.05095  0.92867  1.0000
  C   C26       1.0  0.09903  0.94905  0.07133  1.0000
  C   C27       1.0  0.05659  0.96383  0.87541  1.0000
  C   C28       1.0  0.94341  0.03616  0.12459  1.0000
  C   C29       1.0  0.67680  0.18453  0.10805  1.0000
  C   C30       1.0  0.32320  0.81547  0.89195  1.0000
  C   C31       1.0  0.06738  0.09990  0.46097  1.0000
  C   C32       1.0  0.93262  0.90010  0.53903  1.0000
  C   C33       1.0  0.15090  0.97989  0.40241  1.0000
  C   C34       1.0  0.84910  0.02011  0.59759  1.0000
  C   C35       1.0  0.08368  0.88102  0.44138  1.0000
  C   C36       1.0  0.91633  0.11898  0.55861  1.0000
  C   C37       1.0  0.14114  0.20601  0.42032  1.0000
  C   C38       1.0  0.85886  0.79400  0.57968  1.0000
  N   N1        1.0  0.97183  0.68572  0.86992  1.0000
  N   N2        1.0  0.02816  0.31428  0.13008  1.0000
  N   N3        1.0  0.29158  0.45687  0.22702  1.0000
  N   N4        1.0  0.70842  0.54314  0.77297  1.0000
  N   N5        1.0  0.19365  0.55774  0.08516  1.0000
  N   N6        1.0  0.80634  0.44226  0.91484  1.0000
  N   N7        1.0  0.39806  0.35896  0.47175  1.0000
  N   N8        1.0  0.60194  0.64104  0.52825  1.0000
  N   N9        1.0  0.32158  0.44640  0.65561  1.0000
  N   N10       1.0  0.67842  0.55359  0.34439  1.0000
  O   O1        1.0  0.63394  0.21448  0.22399  1.0000
  O   O2        1.0  0.36607  0.78552  0.77602  1.0000
  O   O3        1.0  0.59130  0.23065  0.04191  1.0000
  O   O4        1.0  0.40870  0.76936  0.95809  1.0000
  O   O5        1.0  0.29206  0.17242  0.34558  1.0000
  O   O6        1.0  0.70794  0.82759  0.65442  1.0000
  O   O7        1.0  0.05676  0.31835  0.45924  1.0000
  O   O8        1.0  0.94324  0.68166  0.54077  1.0000
