data_image0
_chemical_formula_structural       Cu4H24C36N16O16
_chemical_formula_sum              "Cu4 H24 C36 N16 O16"
_cell_length_a       9.33332
_cell_length_b       9.06689
_cell_length_c       13.6591
_cell_angle_alpha    90.0001
_cell_angle_beta     89.9993
_cell_angle_gamma    90.3529

_space_group_name_H-M_alt    "P 1"
_space_group_IT_number       1

loop_
  _space_group_symop_operation_xyz
  'x, y, z'

loop_
  _atom_site_type_symbol
  _atom_site_label
  _atom_site_symmetry_multiplicity
  _atom_site_fract_x
  _atom_site_fract_y
  _atom_site_fract_z
  _atom_site_occupancy
  Cu  Cu1       1.0  0.57193  0.63182  0.58272  1.0000
  Cu  Cu2       1.0  0.92808  0.36818  0.08271  1.0000
  Cu  Cu3       1.0  0.42807  0.36819  0.41729  1.0000
  Cu  Cu4       1.0  0.07193  0.63182  0.91730  1.0000
  H   H1        1.0  0.97625  0.25133  0.60076  1.0000
  H   H2        1.0  0.52374  0.74866  0.10076  1.0000
  H   H3        1.0  0.02375  0.74865  0.39924  1.0000
  H   H4        1.0  0.47626  0.25136  0.89924  1.0000
  H   H5        1.0  0.81748  0.42729  0.50971  1.0000
  H   H6        1.0  0.68252  0.57270  0.00971  1.0000
  H   H7        1.0  0.18251  0.57269  0.49028  1.0000
  H   H8        1.0  0.31750  0.42733  0.99029  1.0000
  H   H9        1.0  0.36064  0.85417  0.68250  1.0000
  H   H10       1.0  0.13936  0.14584  0.18249  1.0000
  H   H11       1.0  0.63935  0.14584  0.31752  1.0000
  H   H12       1.0  0.86066  0.85414  0.81751  1.0000
  H   H13       1.0  0.23519  0.05973  0.58114  1.0000
  H   H14       1.0  0.26480  0.94028  0.08114  1.0000
  H   H15       1.0  0.76479  0.94027  0.41887  1.0000
  H   H16       1.0  0.73520  0.05972  0.91884  1.0000
  H   H17       1.0  0.27417  0.02731  0.40064  1.0000
  H   H18       1.0  0.22584  0.97269  0.90064  1.0000
  H   H19       1.0  0.72581  0.97269  0.59937  1.0000
  H   H20       1.0  0.77418  0.02732  0.09935  1.0000
  H   H21       1.0  0.46122  0.79151  0.38372  1.0000
  H   H22       1.0  0.03880  0.20850  0.88372  1.0000
  H   H23       1.0  0.53878  0.20849  0.61628  1.0000
  H   H24       1.0  0.96121  0.79151  0.11628  1.0000
  C   C1        1.0  0.71219  0.49068  0.73688  1.0000
  C   C2        1.0  0.78780  0.50932  0.23688  1.0000
  C   C3        1.0  0.28781  0.50932  0.26312  1.0000
  C   C4        1.0  0.21220  0.49068  0.76311  1.0000
  C   C5        1.0  0.79762  0.38841  0.78574  1.0000
  C   C6        1.0  0.70240  0.61159  0.28573  1.0000
  C   C7        1.0  0.20238  0.61160  0.21427  1.0000
  C   C8        1.0  0.29760  0.38840  0.71426  1.0000
  C   C9        1.0  0.89763  0.31716  0.64004  1.0000
  C   C10       1.0  0.60236  0.68283  0.14005  1.0000
  C   C11       1.0  0.10236  0.68283  0.35996  1.0000
  C   C12       1.0  0.39765  0.31718  0.85995  1.0000
  C   C13       1.0  0.81129  0.41680  0.58903  1.0000
  C   C14       1.0  0.68871  0.58320  0.08903  1.0000
  C   C15       1.0  0.18870  0.58320  0.41097  1.0000
  C   C16       1.0  0.31131  0.41682  0.91097  1.0000
  C   C17       1.0  0.61047  0.59724  0.78429  1.0000
  C   C18       1.0  0.88953  0.40276  0.28430  1.0000
  C   C19       1.0  0.38953  0.40276  0.21571  1.0000
  C   C20       1.0  0.11044  0.59722  0.71570  1.0000
  C   C21       1.0  0.79467  0.35913  0.89496  1.0000
  C   C22       1.0  0.70531  0.64085  0.39496  1.0000
  C   C23       1.0  0.20532  0.64086  0.10504  1.0000
  C   C24       1.0  0.29467  0.35913  0.60504  1.0000
  C   C25       1.0  0.36103  0.86704  0.60370  1.0000
  C   C26       1.0  0.13898  0.13297  0.10370  1.0000
  C   C27       1.0  0.63898  0.13298  0.39632  1.0000
  C   C28       1.0  0.86104  0.86704  0.89630  1.0000
  C   C29       1.0  0.31884  0.95438  0.45529  1.0000
  C   C30       1.0  0.18118  0.04565  0.95528  1.0000
  C   C31       1.0  0.68116  0.04562  0.54473  1.0000
  C   C32       1.0  0.81883  0.95436  0.04471  1.0000
  C   C33       1.0  0.41201  0.83845  0.44841  1.0000
  C   C34       1.0  0.08799  0.16155  0.94841  1.0000
  C   C35       1.0  0.58798  0.16157  0.55160  1.0000
  C   C36       1.0  0.91203  0.83846  0.05159  1.0000
  N   N1        1.0  0.71930  0.50070  0.63833  1.0000
  N   N2        1.0  0.78070  0.49930  0.13833  1.0000
  N   N3        1.0  0.28070  0.49930  0.36167  1.0000
  N   N4        1.0  0.21931  0.50070  0.86167  1.0000
  N   N5        1.0  0.89038  0.30164  0.73712  1.0000
  N   N6        1.0  0.60961  0.69834  0.23711  1.0000
  N   N7        1.0  0.10961  0.69836  0.26288  1.0000
  N   N8        1.0  0.39039  0.30164  0.76287  1.0000
  N   N9        1.0  0.43759  0.78505  0.54174  1.0000
  N   N10       1.0  0.06241  0.21495  0.04175  1.0000
  N   N11       1.0  0.56239  0.21494  0.45826  1.0000
  N   N12       1.0  0.93759  0.78505  0.95826  1.0000
  N   N13       1.0  0.28754  0.96964  0.55329  1.0000
  N   N14       1.0  0.21245  0.03035  0.05329  1.0000
  N   N15       1.0  0.71244  0.03035  0.44672  1.0000
  N   N16       1.0  0.78756  0.96964  0.94670  1.0000
  O   O1        1.0  0.53823  0.67741  0.72295  1.0000
  O   O2        1.0  0.96179  0.32259  0.22294  1.0000
  O   O3        1.0  0.46178  0.32259  0.27704  1.0000
  O   O4        1.0  0.03820  0.67740  0.77705  1.0000
  O   O5        1.0  0.60077  0.60491  0.87473  1.0000
  O   O6        1.0  0.89927  0.39512  0.37472  1.0000
  O   O7        1.0  0.39925  0.39510  0.12527  1.0000
  O   O8        1.0  0.10074  0.60487  0.62527  1.0000
  O   O9        1.0  0.89048  0.42980  0.94429  1.0000
  O   O10       1.0  0.60952  0.57019  0.44430  1.0000
  O   O11       1.0  0.10953  0.57020  0.05570  1.0000
  O   O12       1.0  0.39047  0.42980  0.55571  1.0000
  O   O13       1.0  0.71255  0.26148  0.92722  1.0000
  O   O14       1.0  0.78743  0.73853  0.42721  1.0000
  O   O15       1.0  0.28745  0.73852  0.07277  1.0000
  O   O16       1.0  0.21255  0.26148  0.57278  1.0000
