data_image0
_chemical_formula_structural       Cu2H20C36N8O8
_chemical_formula_sum              "Cu2 H20 C36 N8 O8"
_cell_length_a       6.78596
_cell_length_b       8.26734
_cell_length_c       14.2203
_cell_angle_alpha    106.236
_cell_angle_beta     97.5434
_cell_angle_gamma    93.0946

_space_group_name_H-M_alt    "P 1"
_space_group_IT_number       1

loop_
  _space_group_symop_operation_xyz
  'x, y, z'

loop_
  _atom_site_type_symbol
  _atom_site_label
  _atom_site_symmetry_multiplicity
  _atom_site_fract_x
  _atom_site_fract_y
  _atom_site_fract_z
  _atom_site_occupancy
  Cu  Cu1       1.0  0.59810  0.52082  0.40623  1.0000
  Cu  Cu2       1.0  0.40190  0.47918  0.59377  1.0000
  H   H1        1.0  0.54140  0.14687  0.59611  1.0000
  H   H2        1.0  0.45857  0.85313  0.40390  1.0000
  H   H3        1.0  0.08615  0.99888  0.40470  1.0000
  H   H4        1.0  0.91384  0.00113  0.59530  1.0000
  H   H5        1.0  0.97865  0.33293  0.41107  1.0000
  H   H6        1.0  0.02135  0.66707  0.58893  1.0000
  H   H7        1.0  0.14132  0.14822  0.28101  1.0000
  H   H8        1.0  0.85867  0.85178  0.71898  1.0000
  H   H9        1.0  0.98403  0.07990  0.10070  1.0000
  H   H10       1.0  0.01598  0.92010  0.89930  1.0000
  H   H11       1.0  0.12452  0.44842  0.01505  1.0000
  H   H12       1.0  0.87549  0.55159  0.98495  1.0000
  H   H13       1.0  0.99219  0.62520  0.16830  1.0000
  H   H14       1.0  0.00782  0.37482  0.83169  1.0000
  H   H15       1.0  0.18154  0.64752  0.33415  1.0000
  H   H16       1.0  0.81846  0.35248  0.66585  1.0000
  H   H17       1.0  0.36497  0.15035  0.77708  1.0000
  H   H18       1.0  0.63504  0.84966  0.22291  1.0000
  H   H19       1.0  0.67687  0.00950  0.80596  1.0000
  H   H20       1.0  0.32314  0.99052  0.19403  1.0000
  C   C1        1.0  0.51067  0.18967  0.44756  1.0000
  C   C2        1.0  0.48932  0.81032  0.55245  1.0000
  C   C3        1.0  0.51408  0.08444  0.51656  1.0000
  C   C4        1.0  0.48589  0.91556  0.48345  1.0000
  C   C5        1.0  0.87840  0.78762  0.40686  1.0000
  C   C6        1.0  0.12159  0.21239  0.59314  1.0000
  C   C7        1.0  0.00155  0.95231  0.45347  1.0000
  C   C8        1.0  0.99843  0.04770  0.54653  1.0000
  C   C9        1.0  0.91358  0.30449  0.33311  1.0000
  C   C10       1.0  0.08642  0.69549  0.66689  1.0000
  C   C11       1.0  0.00289  0.19778  0.25862  1.0000
  C   C12       1.0  0.99711  0.80221  0.74138  1.0000
  C   C13       1.0  0.91770  0.16226  0.16010  1.0000
  C   C14       1.0  0.08231  0.83773  0.83990  1.0000
  C   C15       1.0  0.74133  0.23501  0.13675  1.0000
  C   C16       1.0  0.25867  0.76498  0.86324  1.0000
  C   C17       1.0  0.65930  0.33883  0.21581  1.0000
  C   C18       1.0  0.34070  0.66116  0.78419  1.0000
  C   C19       1.0  0.47572  0.41307  0.19865  1.0000
  C   C20       1.0  0.52428  0.58693  0.80135  1.0000
  C   C21       1.0  0.37695  0.38889  0.10180  1.0000
  C   C22       1.0  0.62304  0.61111  0.89820  1.0000
  C   C23       1.0  0.20020  0.46702  0.09007  1.0000
  C   C24       1.0  0.79980  0.53299  0.90993  1.0000
  C   C25       1.0  0.12909  0.56278  0.17301  1.0000
  C   C26       1.0  0.87091  0.43723  0.82699  1.0000
  C   C27       1.0  0.23535  0.57730  0.26712  1.0000
  C   C28       1.0  0.76466  0.42270  0.73288  1.0000
  C   C29       1.0  0.63960  0.20860  0.03608  1.0000
  C   C30       1.0  0.36040  0.79140  0.96392  1.0000
  C   C31       1.0  0.46107  0.28535  0.01897  1.0000
  C   C32       1.0  0.53893  0.71465  0.98103  1.0000
  C   C33       1.0  0.44284  0.16694  0.85195  1.0000
  C   C34       1.0  0.55717  0.83307  0.14805  1.0000
  C   C35       1.0  0.61895  0.08968  0.86905  1.0000
  C   C36       1.0  0.38106  0.91033  0.13095  1.0000
  N   N1        1.0  0.40428  0.50530  0.27973  1.0000
  N   N2        1.0  0.59572  0.49469  0.72027  1.0000
  N   N3        1.0  0.74628  0.37235  0.31145  1.0000
  N   N4        1.0  0.25373  0.62764  0.68855  1.0000
  N   N5        1.0  0.36451  0.26431  0.92636  1.0000
  N   N6        1.0  0.63550  0.73570  0.07364  1.0000
  N   N7        1.0  0.71724  0.10955  0.95948  1.0000
  N   N8        1.0  0.28277  0.89045  0.04052  1.0000
  O   O1        1.0  0.56107  0.35347  0.49137  1.0000
  O   O2        1.0  0.43893  0.64653  0.50863  1.0000
  O   O3        1.0  0.47019  0.12817  0.35638  1.0000
  O   O4        1.0  0.52980  0.87182  0.64362  1.0000
  O   O5        1.0  0.82628  0.70428  0.46631  1.0000
  O   O6        1.0  0.17371  0.29572  0.53369  1.0000
  O   O7        1.0  0.82896  0.74275  0.31459  1.0000
  O   O8        1.0  0.17104  0.25725  0.68542  1.0000
