data_image0
_chemical_formula_structural       CoH20C20N14O2
_chemical_formula_sum              "Co1 H20 C20 N14 O2"
_cell_length_a       7.60354
_cell_length_b       8.51517
_cell_length_c       9.63657
_cell_angle_alpha    75.2936
_cell_angle_beta     88.1319
_cell_angle_gamma    78.3528

_space_group_name_H-M_alt    "P 1"
_space_group_IT_number       1

loop_
  _space_group_symop_operation_xyz
  'x, y, z'

loop_
  _atom_site_type_symbol
  _atom_site_label
  _atom_site_symmetry_multiplicity
  _atom_site_fract_x
  _atom_site_fract_y
  _atom_site_fract_z
  _atom_site_occupancy
  Co  Co1       1.0  0.00000  0.50000  0.50000  1.0000
  H   H1        1.0  0.34629  0.40231  0.99295  1.0000
  H   H2        1.0  0.65371  0.59770  0.00706  1.0000
  H   H3        1.0  0.50519  0.28873  0.23096  1.0000
  H   H4        1.0  0.49482  0.71127  0.76904  1.0000
  H   H5        1.0  0.86828  0.93075  0.05905  1.0000
  H   H6        1.0  0.13171  0.06925  0.94095  1.0000
  H   H7        1.0  0.71839  0.04763  0.82199  1.0000
  H   H8        1.0  0.28160  0.95236  0.17802  1.0000
  H   H9        1.0  0.68816  0.01029  0.39225  1.0000
  H   H10       1.0  0.31184  0.98971  0.60774  1.0000
  H   H11       1.0  0.87230  0.90456  0.31002  1.0000
  H   H12       1.0  0.12770  0.09545  0.68998  1.0000
  H   H13       1.0  0.74196  0.24925  0.48944  1.0000
  H   H14       1.0  0.25804  0.75075  0.51056  1.0000
  H   H15       1.0  0.24028  0.29629  0.29535  1.0000
  H   H16       1.0  0.75973  0.70371  0.70464  1.0000
  H   H17       1.0  0.91479  0.35838  0.78773  1.0000
  H   H18       1.0  0.08520  0.64161  0.21227  1.0000
  H   H19       1.0  0.74906  0.35012  0.69527  1.0000
  H   H20       1.0  0.25095  0.64987  0.30472  1.0000
  C   C1        1.0  0.42796  0.29409  0.75242  1.0000
  C   C2        1.0  0.57203  0.70591  0.24758  1.0000
  C   C3        1.0  0.52074  0.23227  0.89202  1.0000
  C   C4        1.0  0.47925  0.76773  0.10798  1.0000
  C   C5        1.0  0.46123  0.29939  0.00834  1.0000
  C   C6        1.0  0.53876  0.70061  0.99167  1.0000
  C   C7        1.0  0.54908  0.23458  0.14120  1.0000
  C   C8        1.0  0.45092  0.76542  0.85880  1.0000
  C   C9        1.0  0.75571  0.03584  0.04461  1.0000
  C   C10       1.0  0.24429  0.96416  0.95539  1.0000
  C   C11       1.0  0.67044  0.10130  0.91087  1.0000
  C   C12       1.0  0.32955  0.89870  0.08913  1.0000
  C   C13       1.0  0.69503  0.10034  0.16115  1.0000
  C   C14       1.0  0.30498  0.89967  0.83885  1.0000
  C   C15       1.0  0.78645  0.02566  0.30626  1.0000
  C   C16       1.0  0.21355  0.97434  0.69374  1.0000
  C   C17       1.0  0.86148  0.23679  0.42417  1.0000
  C   C18       1.0  0.13853  0.76321  0.57582  1.0000
  C   C19       1.0  0.11397  0.25736  0.32292  1.0000
  C   C20       1.0  0.88603  0.74263  0.67708  1.0000
  N   N1        1.0  0.22851  0.39723  0.58930  1.0000
  N   N2        1.0  0.77149  0.60276  0.41070  1.0000
  N   N3        1.0  0.37929  0.34726  0.52484  1.0000
  N   N4        1.0  0.62072  0.65274  0.47516  1.0000
  N   N5        1.0  0.50766  0.28115  0.62659  1.0000
  N   N6        1.0  0.49234  0.71885  0.37341  1.0000
  N   N7        1.0  0.25345  0.36725  0.73167  1.0000
  N   N8        1.0  0.74654  0.63274  0.26834  1.0000
  N   N9        1.0  0.89985  0.13110  0.34015  1.0000
  N   N10       1.0  0.10016  0.86890  0.65985  1.0000
  N   N11       1.0  0.05937  0.14259  0.27402  1.0000
  N   N12       1.0  0.94063  0.85741  0.72597  1.0000
  N   N13       1.0  0.99618  0.31909  0.41538  1.0000
  N   N14       1.0  0.00383  0.68091  0.58462  1.0000
  O   O1        1.0  0.87774  0.35112  0.69429  1.0000
  O   O2        1.0  0.12226  0.64887  0.30571  1.0000
