data_image0
_chemical_formula_structural       Sr2H36C20O20
_chemical_formula_sum              "Sr2 H36 C20 O20"
_cell_length_a       6.93047
_cell_length_b       10.2456
_cell_length_c       11.4416
_cell_angle_alpha    105.198
_cell_angle_beta     100.461
_cell_angle_gamma    96.8128

_space_group_name_H-M_alt    "P 1"
_space_group_IT_number       1

loop_
  _space_group_symop_operation_xyz
  'x, y, z'

loop_
  _atom_site_type_symbol
  _atom_site_label
  _atom_site_symmetry_multiplicity
  _atom_site_fract_x
  _atom_site_fract_y
  _atom_site_fract_z
  _atom_site_occupancy
  Sr  Sr1       1.0  0.22724  0.53505  0.40368  1.0000
  Sr  Sr2       1.0  0.77275  0.46495  0.59632  1.0000
  H   H1        1.0  0.11035  0.31477  0.74262  1.0000
  H   H2        1.0  0.88964  0.68523  0.25738  1.0000
  H   H3        1.0  0.21963  0.18790  0.65320  1.0000
  H   H4        1.0  0.78037  0.81209  0.34680  1.0000
  H   H5        1.0  0.45912  0.44381  0.85700  1.0000
  H   H6        1.0  0.54087  0.55618  0.14300  1.0000
  H   H7        1.0  0.55872  0.31539  0.76270  1.0000
  H   H8        1.0  0.44128  0.68461  0.23730  1.0000
  H   H9        1.0  0.30984  0.26896  0.94974  1.0000
  H   H10       1.0  0.69016  0.73104  0.05026  1.0000
  H   H11       1.0  0.39176  0.13804  0.84758  1.0000
  H   H12       1.0  0.60824  0.86196  0.15242  1.0000
  H   H13       1.0  0.75642  0.22453  0.13319  1.0000
  H   H14       1.0  0.24358  0.77548  0.86681  1.0000
  H   H15       1.0  0.32542  0.86180  0.58728  1.0000
  H   H16       1.0  0.67458  0.13820  0.41271  1.0000
  H   H17       1.0  0.02470  0.00698  0.37982  1.0000
  H   H18       1.0  0.97530  0.99302  0.62018  1.0000
  H   H19       1.0  0.25984  0.11282  0.43311  1.0000
  H   H20       1.0  0.74016  0.88719  0.56689  1.0000
  H   H21       1.0  0.15884  0.87718  0.18997  1.0000
  H   H22       1.0  0.84115  0.12283  0.81003  1.0000
  H   H23       1.0  0.35797  0.01732  0.23732  1.0000
  H   H24       1.0  0.64203  0.98268  0.76268  1.0000
  H   H25       1.0  0.91197  0.02081  0.15298  1.0000
  H   H26       1.0  0.08803  0.97920  0.84702  1.0000
  H   H27       1.0  0.10817  0.06037  0.08122  1.0000
  H   H28       1.0  0.89183  0.93964  0.91878  1.0000
  H   H29       1.0  0.98897  0.44636  0.11619  1.0000
  H   H30       1.0  0.01103  0.55364  0.88381  1.0000
  H   H31       1.0  0.15760  0.56573  0.12022  1.0000
  H   H32       1.0  0.84240  0.43427  0.87978  1.0000
  H   H33       1.0  0.25601  0.72269  0.67928  1.0000
  H   H34       1.0  0.74399  0.27731  0.32072  1.0000
  H   H35       1.0  0.49066  0.73161  0.67163  1.0000
  H   H36       1.0  0.50935  0.26839  0.32836  1.0000
  C   C1        1.0  0.24888  0.37561  0.60838  1.0000
  C   C2        1.0  0.75111  0.62438  0.39162  1.0000
  C   C3        1.0  0.24306  0.29798  0.70467  1.0000
  C   C4        1.0  0.75693  0.70202  0.29533  1.0000
  C   C5        1.0  0.43257  0.33384  0.80628  1.0000
  C   C6        1.0  0.56743  0.66616  0.19372  1.0000
  C   C7        1.0  0.42694  0.24890  0.89707  1.0000
  C   C8        1.0  0.57306  0.75110  0.10293  1.0000
  C   C9        1.0  0.62156  0.27294  0.99014  1.0000
  C   C10       1.0  0.37844  0.72705  0.00985  1.0000
  C   C11       1.0  0.25355  0.90374  0.43203  1.0000
  C   C12       1.0  0.74646  0.09628  0.56798  1.0000
  C   C13       1.0  0.18273  0.01049  0.37418  1.0000
  C   C14       1.0  0.81727  0.98951  0.62582  1.0000
  C   C15       1.0  0.20150  0.98732  0.23967  1.0000
  C   C16       1.0  0.79849  0.01268  0.76033  1.0000
  C   C17       1.0  0.07023  0.06667  0.17167  1.0000
  C   C18       1.0  0.92977  0.93333  0.82833  1.0000
  C   C19       1.0  0.09547  0.21833  0.23958  1.0000
  C   C20       1.0  0.90452  0.78167  0.76042  1.0000
  O   O1        1.0  0.08392  0.38931  0.54574  1.0000
  O   O2        1.0  0.91608  0.61070  0.45427  1.0000
  O   O3        1.0  0.41463  0.42322  0.58989  1.0000
  O   O4        1.0  0.58538  0.57677  0.41011  1.0000
  O   O5        1.0  0.77168  0.35394  0.99227  1.0000
  O   O6        1.0  0.22833  0.64605  0.00773  1.0000
  O   O7        1.0  0.61967  0.19985  0.06976  1.0000
  O   O8        1.0  0.38033  0.80015  0.93024  1.0000
  O   O9        1.0  0.26558  0.78717  0.37152  1.0000
  O   O10       1.0  0.73443  0.21283  0.62848  1.0000
  O   O11       1.0  0.29447  0.94495  0.55603  1.0000
  O   O12       1.0  0.70553  0.05504  0.44397  1.0000
  O   O13       1.0  0.93966  0.27583  0.23935  1.0000
  O   O14       1.0  0.06035  0.72417  0.76066  1.0000
  O   O15       1.0  0.26773  0.28586  0.29382  1.0000
  O   O16       1.0  0.73227  0.71415  0.70618  1.0000
  O   O17       1.0  0.10172  0.51509  0.17222  1.0000
  O   O18       1.0  0.89827  0.48492  0.82778  1.0000
  O   O19       1.0  0.35249  0.73199  0.62674  1.0000
  O   O20       1.0  0.64751  0.26800  0.37326  1.0000
