data_image0
_chemical_formula_structural       Sn4H52C24S4N12
_chemical_formula_sum              "Sn4 H52 C24 S4 N12"
_cell_length_a       6.68051
_cell_length_b       11.0131
_cell_length_c       13.6184
_cell_angle_alpha    90.0005
_cell_angle_beta     90.0005
_cell_angle_gamma    89.9993

_space_group_name_H-M_alt    "P 1"
_space_group_IT_number       1

loop_
  _space_group_symop_operation_xyz
  'x, y, z'

loop_
  _atom_site_type_symbol
  _atom_site_label
  _atom_site_symmetry_multiplicity
  _atom_site_fract_x
  _atom_site_fract_y
  _atom_site_fract_z
  _atom_site_occupancy
  Sn  Sn1       1.0  0.49955  0.14911  0.69234  1.0000
  Sn  Sn2       1.0  0.99954  0.85088  0.30766  1.0000
  Sn  Sn3       1.0  0.49954  0.35089  0.19233  1.0000
  Sn  Sn4       1.0  0.99954  0.64912  0.80767  1.0000
  H   H1        1.0  0.21218  0.45012  0.61021  1.0000
  H   H2        1.0  0.71217  0.54987  0.38979  1.0000
  H   H3        1.0  0.21219  0.04988  0.11021  1.0000
  H   H4        1.0  0.71218  0.95012  0.88980  1.0000
  H   H5        1.0  0.95111  0.36534  0.40599  1.0000
  H   H6        1.0  0.45110  0.63467  0.59401  1.0000
  H   H7        1.0  0.95113  0.13467  0.90599  1.0000
  H   H8        1.0  0.45111  0.86533  0.09401  1.0000
  H   H9        1.0  0.90166  0.22766  0.47112  1.0000
  H   H10       1.0  0.40164  0.77234  0.52888  1.0000
  H   H11       1.0  0.90166  0.27235  0.97113  1.0000
  H   H12       1.0  0.40166  0.72766  0.02888  1.0000
  H   H13       1.0  0.14654  0.29638  0.47481  1.0000
  H   H14       1.0  0.64653  0.70362  0.52519  1.0000
  H   H15       1.0  0.14655  0.20362  0.97481  1.0000
  H   H16       1.0  0.64654  0.79638  0.02519  1.0000
  H   H17       1.0  0.25123  0.97074  0.62492  1.0000
  H   H18       1.0  0.75123  0.02926  0.37508  1.0000
  H   H19       1.0  0.25121  0.52925  0.12492  1.0000
  H   H20       1.0  0.75123  0.47075  0.87508  1.0000
  H   H21       1.0  0.44886  0.99955  0.53748  1.0000
  H   H22       1.0  0.94886  0.00045  0.46252  1.0000
  H   H23       1.0  0.44884  0.50045  0.03747  1.0000
  H   H24       1.0  0.94886  0.49956  0.96252  1.0000
  H   H25       1.0  0.23876  0.09886  0.54350  1.0000
  H   H26       1.0  0.73877  0.90114  0.45650  1.0000
  H   H27       1.0  0.23876  0.40113  0.04350  1.0000
  H   H28       1.0  0.73877  0.59887  0.95650  1.0000
  H   H29       1.0  0.41174  0.25097  0.86684  1.0000
  H   H30       1.0  0.91174  0.74902  0.13316  1.0000
  H   H31       1.0  0.41175  0.24903  0.36683  1.0000
  H   H32       1.0  0.91175  0.75097  0.63316  1.0000
  H   H33       1.0  0.20815  0.28195  0.78384  1.0000
  H   H34       1.0  0.70815  0.71805  0.21616  1.0000
  H   H35       1.0  0.20814  0.21806  0.28383  1.0000
  H   H36       1.0  0.70815  0.78194  0.71616  1.0000
  H   H37       1.0  0.43695  0.36731  0.77541  1.0000
  H   H38       1.0  0.93695  0.63268  0.22459  1.0000
  H   H39       1.0  0.43694  0.13268  0.27540  1.0000
  H   H40       1.0  0.93696  0.86732  0.72459  1.0000
  H   H41       1.0  0.88535  0.21674  0.72406  1.0000
  H   H42       1.0  0.38534  0.78326  0.27594  1.0000
  H   H43       1.0  0.88534  0.28326  0.22405  1.0000
  H   H44       1.0  0.38535  0.71674  0.77594  1.0000
  H   H45       1.0  0.87879  0.10593  0.62827  1.0000
  H   H46       1.0  0.37880  0.89407  0.37174  1.0000
  H   H47       1.0  0.87879  0.39407  0.12826  1.0000
  H   H48       1.0  0.37880  0.60594  0.87174  1.0000
  H   H49       1.0  0.86531  0.05913  0.75283  1.0000
  H   H50       1.0  0.36531  0.94086  0.24717  1.0000
  H   H51       1.0  0.86531  0.44086  0.25283  1.0000
  H   H52       1.0  0.36532  0.55914  0.74717  1.0000
  C   C1        1.0  0.73558  0.39539  0.59617  1.0000
  C   C2        1.0  0.23558  0.60460  0.40383  1.0000
  C   C3        1.0  0.73559  0.10460  0.09616  1.0000
  C   C4        1.0  0.23558  0.89539  0.90383  1.0000
  C   C5        1.0  0.05042  0.44644  0.61913  1.0000
  C   C6        1.0  0.55041  0.55356  0.38087  1.0000
  C   C7        1.0  0.05042  0.05355  0.11912  1.0000
  C   C8        1.0  0.55042  0.94645  0.88089  1.0000
  C   C9        1.0  0.98532  0.31328  0.47259  1.0000
  C   C10       1.0  0.48530  0.68672  0.52741  1.0000
  C   C11       1.0  0.98532  0.18671  0.97259  1.0000
  C   C12       1.0  0.48532  0.81328  0.02741  1.0000
  C   C13       1.0  0.33819  0.04070  0.58685  1.0000
  C   C14       1.0  0.83820  0.95930  0.41315  1.0000
  C   C15       1.0  0.33818  0.45930  0.08684  1.0000
  C   C16       1.0  0.83820  0.54070  0.91315  1.0000
  C   C17       1.0  0.37112  0.27865  0.79210  1.0000
  C   C18       1.0  0.87111  0.72134  0.20790  1.0000
  C   C19       1.0  0.37111  0.22135  0.29209  1.0000
  C   C20       1.0  0.87113  0.77865  0.70790  1.0000
  C   C21       1.0  0.82035  0.12996  0.70089  1.0000
  C   C22       1.0  0.32035  0.87004  0.29912  1.0000
  C   C23       1.0  0.82036  0.37004  0.20088  1.0000
  C   C24       1.0  0.32035  0.62996  0.79912  1.0000
  S   S1        1.0  0.53154  0.32240  0.54751  1.0000
  S   S2        1.0  0.03152  0.67759  0.45249  1.0000
  S   S3        1.0  0.53154  0.17759  0.04751  1.0000
  S   S4        1.0  0.03153  0.82241  0.95249  1.0000
  N   N1        1.0  0.92851  0.38138  0.55948  1.0000
  N   N2        1.0  0.42850  0.61862  0.44053  1.0000
  N   N3        1.0  0.92853  0.11861  0.05947  1.0000
  N   N4        1.0  0.42851  0.88138  0.94053  1.0000
  N   N5        1.0  0.94138  0.49740  0.68893  1.0000
  N   N6        1.0  0.44136  0.50259  0.31107  1.0000
  N   N7        1.0  0.94138  0.00259  0.18892  1.0000
  N   N8        1.0  0.44137  0.99742  0.81109  1.0000
  N   N9        1.0  0.74290  0.46724  0.67505  1.0000
  N   N10       1.0  0.24288  0.53275  0.32495  1.0000
  N   N11       1.0  0.74290  0.03275  0.17504  1.0000
  N   N12       1.0  0.24290  0.96724  0.82496  1.0000
