data_image0
_chemical_formula_structural       CdH12C14S2N4
_chemical_formula_sum              "Cd1 H12 C14 S2 N4"
_cell_length_a       5.6971
_cell_length_b       6.3722
_cell_length_c       11.7695
_cell_angle_alpha    111.351
_cell_angle_beta     93.9375
_cell_angle_gamma    99.9142

_space_group_name_H-M_alt    "P 1"
_space_group_IT_number       1

loop_
  _space_group_symop_operation_xyz
  'x, y, z'

loop_
  _atom_site_type_symbol
  _atom_site_label
  _atom_site_symmetry_multiplicity
  _atom_site_fract_x
  _atom_site_fract_y
  _atom_site_fract_z
  _atom_site_occupancy
  Cd  Cd1       1.0  0.00007  0.50002  0.00001  1.0000
  H   H1        1.0  0.95759  0.01953  0.86753  1.0000
  H   H2        1.0  0.04238  0.98050  0.13248  1.0000
  H   H3        1.0  0.80219  0.13811  0.79408  1.0000
  H   H4        1.0  0.19781  0.86196  0.20595  1.0000
  H   H5        1.0  0.55591  0.80522  0.63454  1.0000
  H   H6        1.0  0.44408  0.19479  0.36546  1.0000
  H   H7        1.0  0.30672  0.88486  0.79949  1.0000
  H   H8        1.0  0.69331  0.11519  0.20053  1.0000
  H   H9        1.0  0.25503  0.26628  0.50182  1.0000
  H   H10       1.0  0.74486  0.73364  0.49814  1.0000
  H   H11       1.0  0.99860  0.33391  0.66304  1.0000
  H   H12       1.0  0.00132  0.66603  0.33693  1.0000
  C   C1        1.0  0.48353  0.34278  0.09345  1.0000
  C   C2        1.0  0.51659  0.65724  0.90656  1.0000
  C   C3        1.0  0.42789  0.02693  0.55155  1.0000
  C   C4        1.0  0.57205  0.97304  0.44843  1.0000
  C   C5        1.0  0.13092  0.11092  0.74112  1.0000
  C   C6        1.0  0.86906  0.88907  0.25888  1.0000
  C   C7        1.0  0.43773  0.92494  0.63943  1.0000
  C   C8        1.0  0.56223  0.07506  0.36057  1.0000
  C   C9        1.0  0.29434  0.96710  0.73327  1.0000
  C   C10       1.0  0.70566  0.03292  0.26674  1.0000
  C   C11       1.0  0.27092  0.18026  0.56588  1.0000
  C   C12       1.0  0.72899  0.81968  0.43410  1.0000
  C   C13       1.0  0.12462  0.22097  0.65788  1.0000
  C   C14       1.0  0.87532  0.77898  0.34210  1.0000
  S   S1        1.0  0.25019  0.37577  0.16600  1.0000
  S   S2        1.0  0.74995  0.62428  0.83401  1.0000
  N   N1        1.0  0.97267  0.14493  0.83149  1.0000
  N   N2        1.0  0.02734  0.85510  0.16852  1.0000
  N   N3        1.0  0.65176  0.31365  0.04045  1.0000
  N   N4        1.0  0.34836  0.68636  0.95955  1.0000
