data_image0
_chemical_formula_structural       Zn4H28C24S4N28O8
_chemical_formula_sum              "Zn4 H28 C24 S4 N28 O8"
_cell_length_a       7.44649
_cell_length_b       9.80144
_cell_length_c       15.499
_cell_angle_alpha    90
_cell_angle_beta     89.9999
_cell_angle_gamma    89.9998

_space_group_name_H-M_alt    "P 1"
_space_group_IT_number       1

loop_
  _space_group_symop_operation_xyz
  'x, y, z'

loop_
  _atom_site_type_symbol
  _atom_site_label
  _atom_site_symmetry_multiplicity
  _atom_site_fract_x
  _atom_site_fract_y
  _atom_site_fract_z
  _atom_site_occupancy
  Zn  Zn1       1.0  0.04668  0.21453  0.35793  1.0000
  Zn  Zn2       1.0  0.45332  0.78547  0.85793  1.0000
  Zn  Zn3       1.0  0.54668  0.28547  0.64207  1.0000
  Zn  Zn4       1.0  0.95332  0.71453  0.14207  1.0000
  H   H1        1.0  0.35255  0.84482  0.16585  1.0000
  H   H2        1.0  0.14744  0.15518  0.66585  1.0000
  H   H3        1.0  0.85256  0.65518  0.83415  1.0000
  H   H4        1.0  0.64745  0.34482  0.33415  1.0000
  H   H5        1.0  0.39649  0.07783  0.26563  1.0000
  H   H6        1.0  0.10351  0.92216  0.76563  1.0000
  H   H7        1.0  0.89649  0.42217  0.73437  1.0000
  H   H8        1.0  0.60351  0.57783  0.23437  1.0000
  H   H9        1.0  0.99745  0.80792  0.63012  1.0000
  H   H10       1.0  0.50255  0.19207  0.13012  1.0000
  H   H11       1.0  0.49745  0.69207  0.36988  1.0000
  H   H12       1.0  0.00254  0.30793  0.86988  1.0000
  H   H13       1.0  0.78447  0.78911  0.57928  1.0000
  H   H14       1.0  0.71553  0.21089  0.07928  1.0000
  H   H15       1.0  0.28448  0.71089  0.42072  1.0000
  H   H16       1.0  0.21552  0.28911  0.92072  1.0000
  H   H17       1.0  0.93732  0.56091  0.59633  1.0000
  H   H18       1.0  0.56267  0.43909  0.09634  1.0000
  H   H19       1.0  0.43733  0.93909  0.40367  1.0000
  H   H20       1.0  0.06267  0.06091  0.90366  1.0000
  H   H21       1.0  0.91365  0.59971  0.48521  1.0000
  H   H22       1.0  0.58635  0.40029  0.98522  1.0000
  H   H23       1.0  0.41366  0.90029  0.51479  1.0000
  H   H24       1.0  0.08635  0.09971  0.01478  1.0000
  H   H25       1.0  0.12538  0.62014  0.53805  1.0000
  H   H26       1.0  0.37462  0.37986  0.03806  1.0000
  H   H27       1.0  0.62538  0.87986  0.46194  1.0000
  H   H28       1.0  0.87462  0.12014  0.96194  1.0000
  C   C1        1.0  0.25418  0.90216  0.20245  1.0000
  C   C2        1.0  0.24581  0.09784  0.70245  1.0000
  C   C3        1.0  0.75418  0.59784  0.79755  1.0000
  C   C4        1.0  0.74582  0.40216  0.29755  1.0000
  C   C5        1.0  0.99804  0.95982  0.25493  1.0000
  C   C6        1.0  0.50196  0.04019  0.75493  1.0000
  C   C7        1.0  0.49804  0.54019  0.74507  1.0000
  C   C8        1.0  0.00197  0.45981  0.24507  1.0000
  C   C9        1.0  0.90074  0.04159  0.51363  1.0000
  C   C10       1.0  0.59926  0.95841  0.01363  1.0000
  C   C11       1.0  0.40074  0.45841  0.48637  1.0000
  C   C12       1.0  0.09926  0.54159  0.98637  1.0000
  C   C13       1.0  0.27560  0.02026  0.25150  1.0000
  C   C14       1.0  0.22440  0.97974  0.75150  1.0000
  C   C15       1.0  0.77560  0.47974  0.74850  1.0000
  C   C16       1.0  0.72440  0.52026  0.24850  1.0000
  C   C17       1.0  0.92973  0.77644  0.57048  1.0000
  C   C18       1.0  0.57027  0.22356  0.07048  1.0000
  C   C19       1.0  0.42974  0.72356  0.42952  1.0000
  C   C20       1.0  0.07026  0.27644  0.92951  1.0000
  C   C21       1.0  0.97964  0.63130  0.54528  1.0000
  C   C22       1.0  0.52036  0.36870  0.04529  1.0000
  C   C23       1.0  0.47965  0.86870  0.45472  1.0000
  C   C24       1.0  0.02035  0.13130  0.95471  1.0000
  S   S1        1.0  0.00092  0.88945  0.48358  1.0000
  S   S2        1.0  0.49908  0.11055  0.98358  1.0000
  S   S3        1.0  0.50093  0.61055  0.51642  1.0000
  S   S4        1.0  0.99908  0.38945  0.01642  1.0000
  N   N1        1.0  0.81211  0.95743  0.27616  1.0000
  N   N2        1.0  0.68789  0.04258  0.77615  1.0000
  N   N3        1.0  0.31211  0.54258  0.72385  1.0000
  N   N4        1.0  0.18789  0.45742  0.22385  1.0000
  N   N5        1.0  0.11188  0.05638  0.28392  1.0000
  N   N6        1.0  0.38812  0.94362  0.78392  1.0000
  N   N7        1.0  0.61188  0.44362  0.71608  1.0000
  N   N8        1.0  0.88813  0.55638  0.21608  1.0000
  N   N9        1.0  0.75133  0.19580  0.57641  1.0000
  N   N10       1.0  0.74867  0.80420  0.07641  1.0000
  N   N11       1.0  0.25134  0.30420  0.42359  1.0000
  N   N12       1.0  0.24867  0.69580  0.92359  1.0000
  N   N13       1.0  0.91178  0.15722  0.46531  1.0000
  N   N14       1.0  0.58823  0.84278  0.96531  1.0000
  N   N15       1.0  0.41177  0.34279  0.53469  1.0000
  N   N16       1.0  0.08823  0.65722  0.03469  1.0000
  N   N17       1.0  0.07791  0.86442  0.20561  1.0000
  N   N18       1.0  0.42208  0.13559  0.70561  1.0000
  N   N19       1.0  0.57792  0.63559  0.79439  1.0000
  N   N20       1.0  0.92209  0.36441  0.29439  1.0000
  N   N21       1.0  0.80013  0.06356  0.58395  1.0000
  N   N22       1.0  0.69986  0.93644  0.08395  1.0000
  N   N23       1.0  0.30014  0.43645  0.41605  1.0000
  N   N24       1.0  0.19986  0.56356  0.91605  1.0000
  N   N25       1.0  0.81601  0.25280  0.50640  1.0000
  N   N26       1.0  0.68399  0.74720  0.00640  1.0000
  N   N27       1.0  0.31601  0.24721  0.49360  1.0000
  N   N28       1.0  0.18400  0.75279  0.99360  1.0000
  O   O1        1.0  0.72839  0.84880  0.26518  1.0000
  O   O2        1.0  0.77161  0.15121  0.76518  1.0000
  O   O3        1.0  0.22839  0.65120  0.73482  1.0000
  O   O4        1.0  0.27161  0.34880  0.23482  1.0000
  O   O5        1.0  0.74394  0.06472  0.30496  1.0000
  O   O6        1.0  0.75607  0.93528  0.80496  1.0000
  O   O7        1.0  0.24393  0.43528  0.69505  1.0000
  O   O8        1.0  0.25607  0.56472  0.19504  1.0000
