data_image0
_chemical_formula_structural       K2Cu2H26C34S2N4O6
_chemical_formula_sum              "K2 Cu2 H26 C34 S2 N4 O6"
_cell_length_a       8.25671
_cell_length_b       9.45452
_cell_length_c       11.8933
_cell_angle_alpha    74.8985
_cell_angle_beta     83.2056
_cell_angle_gamma    71.1583

_space_group_name_H-M_alt    "P 1"
_space_group_IT_number       1

loop_
  _space_group_symop_operation_xyz
  'x, y, z'

loop_
  _atom_site_type_symbol
  _atom_site_label
  _atom_site_symmetry_multiplicity
  _atom_site_fract_x
  _atom_site_fract_y
  _atom_site_fract_z
  _atom_site_occupancy
  K   K1        1.0  0.60494  0.68836  0.93136  1.0000
  K   K2        1.0  0.39505  0.31163  0.06864  1.0000
  Cu  Cu1       1.0  0.18585  0.04297  0.05925  1.0000
  Cu  Cu2       1.0  0.81416  0.95703  0.94075  1.0000
  H   H1        1.0  0.98745  0.74126  0.16836  1.0000
  H   H2        1.0  0.01255  0.25874  0.83165  1.0000
  H   H3        1.0  0.82613  0.94471  0.27292  1.0000
  H   H4        1.0  0.17386  0.05530  0.72708  1.0000
  H   H5        1.0  0.92599  0.51943  0.11367  1.0000
  H   H6        1.0  0.07402  0.48057  0.88633  1.0000
  H   H7        1.0  0.65902  0.60407  0.23100  1.0000
  H   H8        1.0  0.34099  0.39593  0.76900  1.0000
  H   H9        1.0  0.51385  0.41461  0.34540  1.0000
  H   H10       1.0  0.48615  0.58539  0.65460  1.0000
  H   H11       1.0  0.63862  0.13803  0.33777  1.0000
  H   H12       1.0  0.36138  0.86197  0.66223  1.0000
  H   H13       1.0  0.20908  0.56315  0.30514  1.0000
  H   H14       1.0  0.79092  0.43685  0.69487  1.0000
  H   H15       1.0  0.26975  0.71939  0.32472  1.0000
  H   H16       1.0  0.73025  0.28061  0.67528  1.0000
  H   H17       1.0  0.13290  0.83446  0.48273  1.0000
  H   H18       1.0  0.86709  0.16554  0.51728  1.0000
  H   H19       1.0  0.89186  0.88637  0.62706  1.0000
  H   H20       1.0  0.10813  0.11363  0.37294  1.0000
  H   H21       1.0  0.64128  0.79566  0.62616  1.0000
  H   H22       1.0  0.35871  0.20434  0.37384  1.0000
  H   H23       1.0  0.63768  0.64387  0.48292  1.0000
  H   H24       1.0  0.36231  0.35613  0.51708  1.0000
  H   H25       1.0  0.88211  0.58611  0.34327  1.0000
  H   H26       1.0  0.11789  0.41390  0.65673  1.0000
  C   C1        1.0  0.41561  0.09401  0.85144  1.0000
  C   C2        1.0  0.58439  0.90599  0.14854  1.0000
  C   C3        1.0  0.24008  0.72878  0.09478  1.0000
  C   C4        1.0  0.75992  0.27122  0.90523  1.0000
  C   C5        1.0  0.09688  0.77503  0.18474  1.0000
  C   C6        1.0  0.90312  0.22497  0.81526  1.0000
  C   C7        1.0  0.90752  0.01214  0.22212  1.0000
  C   C8        1.0  0.09248  0.98786  0.77789  1.0000
  C   C9        1.0  0.84919  0.17272  0.22067  1.0000
  C   C10       1.0  0.15081  0.82728  0.77933  1.0000
  C   C11       1.0  0.93528  0.28073  0.15634  1.0000
  C   C12       1.0  0.06472  0.71927  0.84366  1.0000
  C   C13       1.0  0.86209  0.43671  0.16357  1.0000
  C   C14       1.0  0.13791  0.56329  0.83643  1.0000
  C   C15       1.0  0.71318  0.48294  0.22939  1.0000
  C   C16       1.0  0.28683  0.51706  0.77060  1.0000
  C   C17       1.0  0.63030  0.37651  0.29361  1.0000
  C   C18       1.0  0.36970  0.62349  0.70639  1.0000
  C   C19       1.0  0.69899  0.22397  0.28884  1.0000
  C   C20       1.0  0.30101  0.77603  0.71116  1.0000
  C   C21       1.0  0.16123  0.68494  0.30831  1.0000
  C   C22       1.0  0.83877  0.31506  0.69169  1.0000
  C   C23       1.0  0.02265  0.70909  0.40163  1.0000
  C   C24       1.0  0.97735  0.29091  0.59838  1.0000
  C   C25       1.0  0.02453  0.79222  0.48288  1.0000
  C   C26       1.0  0.97547  0.20778  0.51713  1.0000
  C   C27       1.0  0.88844  0.82186  0.56410  1.0000
  C   C28       1.0  0.11156  0.17814  0.43590  1.0000
  C   C29       1.0  0.74847  0.76970  0.56410  1.0000
  C   C30       1.0  0.25152  0.23030  0.43591  1.0000
  C   C31       1.0  0.74640  0.68512  0.48403  1.0000
  C   C32       1.0  0.25359  0.31488  0.51597  1.0000
  C   C33       1.0  0.88321  0.65398  0.40443  1.0000
  C   C34       1.0  0.11679  0.34602  0.59557  1.0000
  S   S1        1.0  0.55173  0.04598  0.74868  1.0000
  S   S2        1.0  0.44828  0.95400  0.25130  1.0000
  N   N1        1.0  0.31551  0.13179  0.92717  1.0000
  N   N2        1.0  0.68450  0.86820  0.07281  1.0000
  N   N3        1.0  0.04591  0.94171  0.17000  1.0000
  N   N4        1.0  0.95409  0.05829  0.83000  1.0000
  O   O1        1.0  0.29392  0.83735  0.02713  1.0000
  O   O2        1.0  0.70608  0.16265  0.97287  1.0000
  O   O3        1.0  0.30234  0.59110  0.09061  1.0000
  O   O4        1.0  0.69767  0.40889  0.90939  1.0000
  O   O5        1.0  0.07522  0.24486  0.09104  1.0000
  O   O6        1.0  0.92479  0.75514  0.90896  1.0000
