data_image0
_chemical_formula_structural       Cd2P4H36C28N4O12
_chemical_formula_sum              "Cd2 P4 H36 C28 N4 O12"
_cell_length_a       5.77988
_cell_length_b       10.386
_cell_length_c       14.6547
_cell_angle_alpha    96.9796
_cell_angle_beta     90.0001
_cell_angle_gamma    90.0002

_space_group_name_H-M_alt    "P 1"
_space_group_IT_number       1

loop_
  _space_group_symop_operation_xyz
  'x, y, z'

loop_
  _atom_site_type_symbol
  _atom_site_label
  _atom_site_symmetry_multiplicity
  _atom_site_fract_x
  _atom_site_fract_y
  _atom_site_fract_z
  _atom_site_occupancy
  Cd  Cd1       1.0  1.00000  0.00000  0.00000  1.0000
  Cd  Cd2       1.0  0.50000  0.00000  0.50000  1.0000
  P   P1        1.0  0.50368  0.83618  0.93843  1.0000
  P   P2        1.0  0.00369  0.16382  0.56157  1.0000
  P   P3        1.0  0.49632  0.16382  0.06157  1.0000
  P   P4        1.0  0.99631  0.83618  0.43843  1.0000
  H   H1        1.0  0.50504  0.84977  0.03581  1.0000
  H   H2        1.0  0.00504  0.15022  0.46419  1.0000
  H   H3        1.0  0.49495  0.15022  0.96419  1.0000
  H   H4        1.0  0.99496  0.84978  0.53582  1.0000
  H   H5        1.0  0.83911  0.64045  0.97303  1.0000
  H   H6        1.0  0.33912  0.35955  0.52697  1.0000
  H   H7        1.0  0.16089  0.35955  0.02697  1.0000
  H   H8        1.0  0.66089  0.64045  0.47303  1.0000
  H   H9        1.0  0.84843  0.40012  0.92927  1.0000
  H   H10       1.0  0.34844  0.59988  0.57072  1.0000
  H   H11       1.0  0.15157  0.59988  0.07073  1.0000
  H   H12       1.0  0.65157  0.40012  0.42927  1.0000
  H   H13       1.0  0.53717  0.29192  0.83269  1.0000
  H   H14       1.0  0.03717  0.70808  0.66730  1.0000
  H   H15       1.0  0.46283  0.70808  0.16731  1.0000
  H   H16       1.0  0.96283  0.29192  0.33270  1.0000
  H   H17       1.0  0.21145  0.42199  0.77918  1.0000
  H   H18       1.0  0.71145  0.57801  0.72081  1.0000
  H   H19       1.0  0.78856  0.57801  0.22082  1.0000
  H   H20       1.0  0.28855  0.42199  0.27919  1.0000
  H   H21       1.0  0.18984  0.65873  0.82988  1.0000
  H   H22       1.0  0.68984  0.34127  0.67012  1.0000
  H   H23       1.0  0.81016  0.34127  0.17012  1.0000
  H   H24       1.0  0.31016  0.65874  0.32988  1.0000
  H   H25       1.0  0.00541  0.75650  0.21406  1.0000
  H   H26       1.0  0.50542  0.24351  0.28594  1.0000
  H   H27       1.0  0.99459  0.24350  0.78594  1.0000
  H   H28       1.0  0.49458  0.75649  0.71406  1.0000
  H   H29       1.0  0.77771  0.91925  0.28467  1.0000
  H   H30       1.0  0.27771  0.08075  0.21533  1.0000
  H   H31       1.0  0.22229  0.08075  0.71533  1.0000
  H   H32       1.0  0.72229  0.91925  0.78467  1.0000
  H   H33       1.0  0.75573  0.99776  0.18146  1.0000
  H   H34       1.0  0.25573  0.00224  0.31854  1.0000
  H   H35       1.0  0.24427  0.00223  0.81854  1.0000
  H   H36       1.0  0.74427  0.99776  0.68146  1.0000
  C   C1        1.0  0.51346  0.66407  0.90368  1.0000
  C   C2        1.0  0.01347  0.33593  0.59632  1.0000
  C   C3        1.0  0.48653  0.33593  0.09632  1.0000
  C   C4        1.0  0.98654  0.66408  0.40368  1.0000
  C   C5        1.0  0.70094  0.59171  0.93131  1.0000
  C   C6        1.0  0.20094  0.40828  0.56869  1.0000
  C   C7        1.0  0.29906  0.40829  0.06869  1.0000
  C   C8        1.0  0.79906  0.59172  0.43131  1.0000
  C   C9        1.0  0.70758  0.45802  0.90634  1.0000
  C   C10       1.0  0.20759  0.54198  0.59366  1.0000
  C   C11       1.0  0.29242  0.54198  0.09366  1.0000
  C   C12       1.0  0.79241  0.45802  0.40635  1.0000
  C   C13       1.0  0.53083  0.39664  0.85214  1.0000
  C   C14       1.0  0.03084  0.60336  0.64785  1.0000
  C   C15       1.0  0.46917  0.60336  0.14786  1.0000
  C   C16       1.0  0.96917  0.39665  0.35214  1.0000
  C   C17       1.0  0.34688  0.46861  0.82316  1.0000
  C   C18       1.0  0.84688  0.53139  0.67683  1.0000
  C   C19       1.0  0.65313  0.53139  0.17684  1.0000
  C   C20       1.0  0.15312  0.46861  0.32317  1.0000
  C   C21       1.0  0.33578  0.60212  0.85020  1.0000
  C   C22       1.0  0.83579  0.39788  0.64980  1.0000
  C   C23       1.0  0.66422  0.39788  0.14980  1.0000
  C   C24       1.0  0.16422  0.60213  0.35020  1.0000
  C   C25       1.0  0.94867  0.83250  0.17230  1.0000
  C   C26       1.0  0.44869  0.16751  0.32771  1.0000
  C   C27       1.0  0.05132  0.16750  0.82771  1.0000
  C   C28       1.0  0.55131  0.83250  0.67229  1.0000
  N   N1        1.0  0.81295  0.92266  0.21586  1.0000
  N   N2        1.0  0.31296  0.07734  0.28414  1.0000
  N   N3        1.0  0.18704  0.07733  0.78414  1.0000
  N   N4        1.0  0.68704  0.92266  0.71586  1.0000
  O   O1        1.0  0.72518  0.89811  0.90608  1.0000
  O   O2        1.0  0.22519  0.10189  0.59392  1.0000
  O   O3        1.0  0.27481  0.10189  0.09392  1.0000
  O   O4        1.0  0.77481  0.89811  0.40608  1.0000
  O   O5        1.0  0.27793  0.89166  0.90536  1.0000
  O   O6        1.0  0.77794  0.10834  0.59464  1.0000
  O   O7        1.0  0.72207  0.10834  0.09464  1.0000
  O   O8        1.0  0.22206  0.89166  0.40536  1.0000
  O   O9        1.0  0.01494  0.82684  0.09007  1.0000
  O   O10       1.0  0.51496  0.17316  0.40993  1.0000
  O   O11       1.0  0.98505  0.17315  0.90993  1.0000
  O   O12       1.0  0.48505  0.82684  0.59007  1.0000
