data_image0
_chemical_formula_structural       Cu2H34C36N4Cl2O6
_chemical_formula_sum              "Cu2 H34 C36 N4 Cl2 O6"
_cell_length_a       7.73519
_cell_length_b       11.3916
_cell_length_c       11.3914
_cell_angle_alpha    112.448
_cell_angle_beta     103.581
_cell_angle_gamma    103.579

_space_group_name_H-M_alt    "P 1"
_space_group_IT_number       1

loop_
  _space_group_symop_operation_xyz
  'x, y, z'

loop_
  _atom_site_type_symbol
  _atom_site_label
  _atom_site_symmetry_multiplicity
  _atom_site_fract_x
  _atom_site_fract_y
  _atom_site_fract_z
  _atom_site_occupancy
  Cu  Cu1       1.0  0.50222  0.84986  0.89791  1.0000
  Cu  Cu2       1.0  0.00223  0.89790  0.84986  1.0000
  H   H1        1.0  0.84310  0.95624  0.16516  1.0000
  H   H2        1.0  0.34311  0.16515  0.95623  1.0000
  H   H3        1.0  0.91711  0.87733  0.34422  1.0000
  H   H4        1.0  0.41711  0.34418  0.87731  1.0000
  H   H5        1.0  0.68108  0.66388  0.31159  1.0000
  H   H6        1.0  0.18107  0.31156  0.66385  1.0000
  H   H7        1.0  0.37782  0.54131  0.10631  1.0000
  H   H8        1.0  0.87780  0.10629  0.54130  1.0000
  H   H9        1.0  0.22427  0.51117  0.86241  1.0000
  H   H10       1.0  0.72424  0.86242  0.51117  1.0000
  H   H11       1.0  0.16002  0.65151  0.94664  1.0000
  H   H12       1.0  0.66002  0.94665  0.65153  1.0000
  H   H13       1.0  0.06330  0.51341  0.66407  1.0000
  H   H14       1.0  0.56329  0.66408  0.51341  1.0000
  H   H15       1.0  0.34427  0.03837  0.66579  1.0000
  H   H16       1.0  0.84426  0.66580  0.03837  1.0000
  H   H17       1.0  0.35125  0.14070  0.50889  1.0000
  H   H18       1.0  0.85127  0.50891  0.14072  1.0000
  H   H19       1.0  0.28861  0.99009  0.26210  1.0000
  H   H20       1.0  0.78868  0.26212  0.99012  1.0000
  H   H21       1.0  0.22043  0.74457  0.18080  1.0000
  H   H22       1.0  0.72051  0.18083  0.74460  1.0000
  H   H23       1.0  0.21189  0.64289  0.33717  1.0000
  H   H24       1.0  0.71193  0.33718  0.64289  1.0000
  H   H25       1.0  0.80920  0.31748  0.22874  1.0000
  H   H26       1.0  0.30920  0.22874  0.31746  1.0000
  H   H27       1.0  0.65736  0.37594  0.31419  1.0000
  H   H28       1.0  0.15736  0.31419  0.37593  1.0000
  H   H29       1.0  0.83497  0.16755  0.34301  1.0000
  H   H30       1.0  0.33495  0.34302  0.16754  1.0000
  H   H31       1.0  0.59615  0.12413  0.23879  1.0000
  H   H32       1.0  0.09614  0.23880  0.12412  1.0000
  H   H33       1.0  0.67062  0.21855  0.41922  1.0000
  H   H34       1.0  0.17062  0.41923  0.21854  1.0000
  C   C1        1.0  0.74415  0.86726  0.16020  1.0000
  C   C2        1.0  0.24415  0.16019  0.86725  1.0000
  C   C3        1.0  0.78264  0.82243  0.25774  1.0000
  C   C4        1.0  0.28263  0.25772  0.82242  1.0000
  C   C5        1.0  0.65011  0.70404  0.23966  1.0000
  C   C6        1.0  0.15010  0.23964  0.70404  1.0000
  C   C7        1.0  0.48387  0.63485  0.12490  1.0000
  C   C8        1.0  0.98386  0.12489  0.63484  1.0000
  C   C9        1.0  0.45269  0.68631  0.03197  1.0000
  C   C10       1.0  0.95268  0.03197  0.68632  1.0000
  C   C11       1.0  0.27240  0.62313  0.91085  1.0000
  C   C12       1.0  0.77239  0.91085  0.62313  1.0000
  C   C13       1.0  0.17189  0.61082  0.69245  1.0000
  C   C14       1.0  0.67188  0.69245  0.61082  1.0000
  C   C15       1.0  0.15409  0.65453  0.59003  1.0000
  C   C16       1.0  0.65410  0.59003  0.65453  1.0000
  C   C17       1.0  0.27714  0.78303  0.61578  1.0000
  C   C18       1.0  0.77715  0.61578  0.78304  1.0000
  C   C19       1.0  0.27140  0.83368  0.51209  1.0000
  C   C20       1.0  0.77142  0.51210  0.83368  1.0000
  C   C21       1.0  0.31475  0.97430  0.55873  1.0000
  C   C22       1.0  0.81475  0.55874  0.97430  1.0000
  C   C23       1.0  0.32120  0.03154  0.47056  1.0000
  C   C24       1.0  0.82123  0.47058  0.03156  1.0000
  C   C25       1.0  0.28663  0.94848  0.33384  1.0000
  C   C26       1.0  0.78667  0.33386  0.94850  1.0000
  C   C27       1.0  0.24752  0.80898  0.28736  1.0000
  C   C28       1.0  0.74760  0.28738  0.80900  1.0000
  C   C29       1.0  0.24068  0.75156  0.37526  1.0000
  C   C30       1.0  0.74073  0.37527  0.75157  1.0000
  C   C31       1.0  0.98947  0.56432  0.46238  1.0000
  C   C32       1.0  0.48948  0.46238  0.56431  1.0000
  C   C33       1.0  0.77073  0.33349  0.31919  1.0000
  C   C34       1.0  0.27073  0.31919  0.33349  1.0000
  C   C35       1.0  0.71528  0.20365  0.33146  1.0000
  C   C36       1.0  0.21527  0.33147  0.20364  1.0000
  N   N1        1.0  0.58171  0.80051  0.05008  1.0000
  N   N2        1.0  0.08171  0.05007  0.80051  1.0000
  N   N3        1.0  0.29700  0.67584  0.81580  1.0000
  N   N4        1.0  0.79699  0.81579  0.67584  1.0000
  Cl  Cl1       1.0  0.77549  0.02849  0.97848  1.0000
  Cl  Cl2       1.0  0.27550  0.97847  0.02849  1.0000
  O   O1        1.0  0.41030  0.86793  0.73151  1.0000
  O   O2        1.0  0.91031  0.73151  0.86793  1.0000
  O   O3        1.0  0.90247  0.59798  0.38317  1.0000
  O   O4        1.0  0.40249  0.38318  0.59799  1.0000
  O   O5        1.0  0.93727  0.43215  0.43978  1.0000
  O   O6        1.0  0.43729  0.43977  0.43215  1.0000
