data_image0
_chemical_formula_structural       Mo2H28C14N2O8
_chemical_formula_sum              "Mo2 H28 C14 N2 O8"
_cell_length_a       8.21052
_cell_length_b       8.32907
_cell_length_c       8.62566
_cell_angle_alpha    106.897
_cell_angle_beta     114.569
_cell_angle_gamma    92.3924

_space_group_name_H-M_alt    "P 1"
_space_group_IT_number       1

loop_
  _space_group_symop_operation_xyz
  'x, y, z'

loop_
  _atom_site_type_symbol
  _atom_site_label
  _atom_site_symmetry_multiplicity
  _atom_site_fract_x
  _atom_site_fract_y
  _atom_site_fract_z
  _atom_site_occupancy
  Mo  Mo1       1.0  0.10791  0.04223  0.13420  1.0000
  Mo  Mo2       1.0  0.89209  0.95775  0.86578  1.0000
  H   H1        1.0  0.71326  0.32400  0.33048  1.0000
  H   H2        1.0  0.28677  0.67599  0.66952  1.0000
  H   H3        1.0  0.53970  0.13968  0.17483  1.0000
  H   H4        1.0  0.46032  0.86032  0.82518  1.0000
  H   H5        1.0  0.56447  0.31287  0.10402  1.0000
  H   H6        1.0  0.43554  0.68712  0.89598  1.0000
  H   H7        1.0  0.93486  0.52944  0.18785  1.0000
  H   H8        1.0  0.06513  0.47058  0.81217  1.0000
  H   H9        1.0  0.78371  0.44016  0.94950  1.0000
  H   H10       1.0  0.21627  0.55983  0.05052  1.0000
  H   H11       1.0  0.70911  0.57063  0.10058  1.0000
  H   H12       1.0  0.29089  0.42939  0.89945  1.0000
  H   H13       1.0  0.56187  0.14819  0.45311  1.0000
  H   H14       1.0  0.43813  0.85182  0.54689  1.0000
  H   H15       1.0  0.60685  0.15407  0.67468  1.0000
  H   H16       1.0  0.39314  0.84593  0.32531  1.0000
  H   H17       1.0  0.12221  0.14950  0.57501  1.0000
  H   H18       1.0  0.87778  0.85050  0.42499  1.0000
  H   H19       1.0  0.33783  0.13711  0.74343  1.0000
  H   H20       1.0  0.66216  0.86290  0.25657  1.0000
  H   H21       1.0  0.20499  0.95635  0.54431  1.0000
  H   H22       1.0  0.79501  0.04366  0.45569  1.0000
  H   H23       1.0  0.22618  0.37659  0.51803  1.0000
  H   H24       1.0  0.77381  0.62342  0.48196  1.0000
  H   H25       1.0  0.41199  0.37592  0.46247  1.0000
  H   H26       1.0  0.58800  0.62409  0.53753  1.0000
  H   H27       1.0  0.45448  0.40278  0.69045  1.0000
  H   H28       1.0  0.54550  0.59723  0.30954  1.0000
  C   C1        1.0  0.77062  0.15973  0.12374  1.0000
  C   C2        1.0  0.22940  0.84026  0.87626  1.0000
  C   C3        1.0  0.64108  0.24037  0.18893  1.0000
  C   C4        1.0  0.35893  0.75962  0.81106  1.0000
  C   C5        1.0  0.89037  0.70905  0.04542  1.0000
  C   C6        1.0  0.10962  0.29095  0.95458  1.0000
  C   C7        1.0  0.82730  0.55217  0.07239  1.0000
  C   C8        1.0  0.17268  0.44784  0.92762  1.0000
  C   C9        1.0  0.49176  0.90329  0.47023  1.0000
  C   C10       1.0  0.50825  0.09671  0.52977  1.0000
  C   C11       1.0  0.24599  0.09552  0.59608  1.0000
  C   C12       1.0  0.75401  0.90449  0.40392  1.0000
  C   C13       1.0  0.35824  0.33665  0.54565  1.0000
  C   C14       1.0  0.64175  0.66336  0.45435  1.0000
  N   N1        1.0  0.66800  0.84926  0.50307  1.0000
  N   N2        1.0  0.33200  0.15074  0.49693  1.0000
  O   O1        1.0  0.93643  0.16959  0.23635  1.0000
  O   O2        1.0  0.06358  0.83040  0.76365  1.0000
  O   O3        1.0  0.28947  0.92199  0.04734  1.0000
  O   O4        1.0  0.71055  0.07799  0.95265  1.0000
  O   O5        1.0  0.02900  0.81935  0.17593  1.0000
  O   O6        1.0  0.97101  0.18064  0.82407  1.0000
  O   O7        1.0  0.19808  0.26844  0.10742  1.0000
  O   O8        1.0  0.80192  0.73155  0.89257  1.0000
