data_image0
_chemical_formula_structural       Mo2P2H28C14O8
_chemical_formula_sum              "Mo2 P2 H28 C14 O8"
_cell_length_a       7.51968
_cell_length_b       8.34821
_cell_length_c       9.56872
_cell_angle_alpha    69.017
_cell_angle_beta     69.779
_cell_angle_gamma    78.3664

_space_group_name_H-M_alt    "P 1"
_space_group_IT_number       1

loop_
  _space_group_symop_operation_xyz
  'x, y, z'

loop_
  _atom_site_type_symbol
  _atom_site_label
  _atom_site_symmetry_multiplicity
  _atom_site_fract_x
  _atom_site_fract_y
  _atom_site_fract_z
  _atom_site_occupancy
  Mo  Mo1       1.0  0.03915  0.92008  0.60230  1.0000
  Mo  Mo2       1.0  0.96087  0.07995  0.39768  1.0000
  P   P1        1.0  0.84539  0.26012  0.10623  1.0000
  P   P2        1.0  0.15460  0.73988  0.89377  1.0000
  H   H1        1.0  0.54018  0.89153  0.09248  1.0000
  H   H2        1.0  0.45981  0.10845  0.90751  1.0000
  H   H3        1.0  0.64150  0.85048  0.24815  1.0000
  H   H4        1.0  0.35852  0.14949  0.75181  1.0000
  H   H5        1.0  0.52868  0.68746  0.24182  1.0000
  H   H6        1.0  0.47130  0.31252  0.75819  1.0000
  H   H7        1.0  0.74476  0.47429  0.62225  1.0000
  H   H8        1.0  0.25526  0.52574  0.37777  1.0000
  H   H9        1.0  0.84343  0.53139  0.41580  1.0000
  H   H10       1.0  0.15660  0.46861  0.58422  1.0000
  H   H11       1.0  0.60998  0.61881  0.49716  1.0000
  H   H12       1.0  0.39004  0.38119  0.50285  1.0000
  H   H13       1.0  0.15251  0.47332  0.85180  1.0000
  H   H14       1.0  0.84747  0.52667  0.14820  1.0000
  H   H15       1.0  0.19180  0.43083  0.03519  1.0000
  H   H16       1.0  0.80817  0.56918  0.96481  1.0000
  H   H17       1.0  0.17522  0.67014  0.16047  1.0000
  H   H18       1.0  0.82474  0.32987  0.83953  1.0000
  H   H19       1.0  0.16303  0.89709  0.06249  1.0000
  H   H20       1.0  0.83694  0.10293  0.93750  1.0000
  H   H21       1.0  0.95513  0.78909  0.14045  1.0000
  H   H22       1.0  0.04483  0.21092  0.85953  1.0000
  H   H23       1.0  0.47123  0.84057  0.79131  1.0000
  H   H24       1.0  0.52882  0.15934  0.20874  1.0000
  H   H25       1.0  0.47665  0.62331  0.91668  1.0000
  H   H26       1.0  0.52329  0.37662  0.08339  1.0000
  H   H27       1.0  0.46072  0.67355  0.72268  1.0000
  H   H28       1.0  0.53929  0.32637  0.27737  1.0000
  C   C1        1.0  0.33819  0.88891  0.31717  1.0000
  C   C2        1.0  0.66183  0.11111  0.68280  1.0000
  C   C3        1.0  0.52295  0.82717  0.21749  1.0000
  C   C4        1.0  0.47705  0.17282  0.78249  1.0000
  C   C5        1.0  0.83413  0.72953  0.51165  1.0000
  C   C6        1.0  0.16590  0.27051  0.48834  1.0000
  C   C7        1.0  0.75203  0.57969  0.51262  1.0000
  C   C8        1.0  0.24799  0.42033  0.48739  1.0000
  C   C9        1.0  0.89446  0.48797  0.04151  1.0000
  C   C10       1.0  0.10552  0.51204  0.95849  1.0000
  C   C11       1.0  0.10831  0.77627  0.08169  1.0000
  C   C12       1.0  0.89167  0.22374  0.91831  1.0000
  C   C13       1.0  0.41533  0.71607  0.82656  1.0000
  C   C14       1.0  0.58466  0.28387  0.17348  1.0000
  O   O1        1.0  0.29989  0.82909  0.46772  1.0000
  O   O2        1.0  0.70012  0.17097  0.53225  1.0000
  O   O3        1.0  0.77838  0.00029  0.74811  1.0000
  O   O4        1.0  0.22164  0.99974  0.25186  1.0000
  O   O5        1.0  0.91336  0.70943  0.61751  1.0000
  O   O6        1.0  0.08668  0.29062  0.38247  1.0000
  O   O7        1.0  0.17143  0.12564  0.59657  1.0000
  O   O8        1.0  0.82856  0.87440  0.40340  1.0000
