data_image0
_chemical_formula_structural       K4H12C8S4N16
_chemical_formula_sum              "K4 H12 C8 S4 N16"
_cell_length_a       6.51096
_cell_length_b       6.65314
_cell_length_c       13.8937
_cell_angle_alpha    90.0038
_cell_angle_beta     90
_cell_angle_gamma    90.0011

_space_group_name_H-M_alt    "P 1"
_space_group_IT_number       1

loop_
  _space_group_symop_operation_xyz
  'x, y, z'

loop_
  _atom_site_type_symbol
  _atom_site_label
  _atom_site_symmetry_multiplicity
  _atom_site_fract_x
  _atom_site_fract_y
  _atom_site_fract_z
  _atom_site_occupancy
  K   K1        1.0  0.74997  0.39341  0.23687  1.0000
  K   K2        1.0  0.24997  0.89341  0.26314  1.0000
  K   K3        1.0  0.75002  0.10658  0.73687  1.0000
  K   K4        1.0  0.25003  0.60662  0.76314  1.0000
  H   H1        1.0  0.38770  0.09646  0.05081  1.0000
  H   H2        1.0  0.61230  0.59649  0.44917  1.0000
  H   H3        1.0  0.11230  0.40355  0.55080  1.0000
  H   H4        1.0  0.88773  0.90350  0.94919  1.0000
  H   H5        1.0  0.61228  0.90349  0.94919  1.0000
  H   H6        1.0  0.38773  0.40355  0.55081  1.0000
  H   H7        1.0  0.88773  0.59650  0.44917  1.0000
  H   H8        1.0  0.11223  0.09646  0.05081  1.0000
  H   H9        1.0  0.24997  0.13222  0.94077  1.0000
  H   H10       1.0  0.75001  0.63221  0.55921  1.0000
  H   H11       1.0  0.25001  0.36780  0.44077  1.0000
  H   H12       1.0  0.75001  0.86775  0.05925  1.0000
  C   C1        1.0  0.25000  0.48266  0.11687  1.0000
  C   C2        1.0  0.74999  0.98268  0.38314  1.0000
  C   C3        1.0  0.25000  0.01737  0.61687  1.0000
  C   C4        1.0  0.75002  0.51730  0.88315  1.0000
  C   C5        1.0  0.24999  0.16213  0.01819  1.0000
  C   C6        1.0  0.75000  0.66215  0.48180  1.0000
  C   C7        1.0  0.25000  0.33787  0.51818  1.0000
  C   C8        1.0  0.75000  0.83784  0.98182  1.0000
  S   S1        1.0  0.24998  0.38416  0.23051  1.0000
  S   S2        1.0  0.74998  0.88421  0.26952  1.0000
  S   S3        1.0  0.25001  0.11585  0.73048  1.0000
  S   S4        1.0  0.75003  0.61581  0.76950  1.0000
  N   N1        1.0  0.24999  0.37724  0.03259  1.0000
  N   N2        1.0  0.75000  0.87726  0.46739  1.0000
  N   N3        1.0  0.25000  0.12279  0.53260  1.0000
  N   N4        1.0  0.75001  0.62272  0.96742  1.0000
  N   N5        1.0  0.25000  0.50750  0.95802  1.0000
  N   N6        1.0  0.75001  0.00750  0.54196  1.0000
  N   N7        1.0  0.25000  0.99252  0.45804  1.0000
  N   N8        1.0  0.74999  0.49247  0.04199  1.0000
  N   N9        1.0  0.25000  0.68746  0.99505  1.0000
  N   N10       1.0  0.75001  0.18749  0.50495  1.0000
  N   N11       1.0  0.25000  0.81255  0.49505  1.0000
  N   N12       1.0  0.75000  0.31248  0.00496  1.0000
  N   N13       1.0  0.25000  0.67948  0.09207  1.0000
  N   N14       1.0  0.75000  0.17950  0.40793  1.0000
  N   N15       1.0  0.25000  0.82055  0.59207  1.0000
  N   N16       1.0  0.75001  0.32050  0.90794  1.0000
