data_image0
_chemical_formula_structural       La4H24C24N36
_chemical_formula_sum              "La4 H24 C24 N36"
_cell_length_a       9.55729
_cell_length_b       9.55729
_cell_length_c       13.1813
_cell_angle_alpha    92.388
_cell_angle_beta     92.3883
_cell_angle_gamma    119.927

_space_group_name_H-M_alt    "P 1"
_space_group_IT_number       1

loop_
  _space_group_symop_operation_xyz
  'x, y, z'

loop_
  _atom_site_type_symbol
  _atom_site_label
  _atom_site_symmetry_multiplicity
  _atom_site_fract_x
  _atom_site_fract_y
  _atom_site_fract_z
  _atom_site_occupancy
  La  La1       1.0  0.52174  0.25534  0.42738  1.0000
  La  La2       1.0  0.74467  0.47826  0.07262  1.0000
  La  La3       1.0  0.47826  0.74467  0.57262  1.0000
  La  La4       1.0  0.25533  0.52174  0.92738  1.0000
  H   H1        1.0  0.96318  0.99167  0.40142  1.0000
  H   H2        1.0  0.00833  0.03681  0.09858  1.0000
  H   H3        1.0  0.03681  0.00834  0.59858  1.0000
  H   H4        1.0  0.99166  0.96319  0.90142  1.0000
  H   H5        1.0  0.91002  0.23672  0.33510  1.0000
  H   H6        1.0  0.76328  0.08998  0.16490  1.0000
  H   H7        1.0  0.08998  0.76328  0.66490  1.0000
  H   H8        1.0  0.23672  0.91002  0.83510  1.0000
  H   H9        1.0  0.77215  0.69898  0.77170  1.0000
  H   H10       1.0  0.30102  0.22785  0.72830  1.0000
  H   H11       1.0  0.22785  0.30102  0.22830  1.0000
  H   H12       1.0  0.69898  0.77215  0.27170  1.0000
  H   H13       1.0  0.86427  0.46750  0.73053  1.0000
  H   H14       1.0  0.53251  0.13573  0.76947  1.0000
  H   H15       1.0  0.13573  0.53250  0.26947  1.0000
  H   H16       1.0  0.46749  0.86427  0.23053  1.0000
  H   H17       1.0  0.35392  0.06494  0.00953  1.0000
  H   H18       1.0  0.93506  0.64608  0.49047  1.0000
  H   H19       1.0  0.64608  0.93506  0.99047  1.0000
  H   H20       1.0  0.06494  0.35392  0.50953  1.0000
  H   H21       1.0  0.15864  0.88175  0.16028  1.0000
  H   H22       1.0  0.11826  0.84136  0.33972  1.0000
  H   H23       1.0  0.84136  0.11826  0.83972  1.0000
  H   H24       1.0  0.88174  0.15864  0.66028  1.0000
  C   C1        1.0  0.86514  0.01511  0.41416  1.0000
  C   C2        1.0  0.98489  0.13486  0.08584  1.0000
  C   C3        1.0  0.13486  0.98489  0.58584  1.0000
  C   C4        1.0  0.01511  0.86514  0.91416  1.0000
  C   C5        1.0  0.83856  0.13686  0.38090  1.0000
  C   C6        1.0  0.86314  0.16144  0.11910  1.0000
  C   C7        1.0  0.16144  0.86314  0.61910  1.0000
  C   C8        1.0  0.13686  0.83856  0.88090  1.0000
  C   C9        1.0  0.73551  0.60848  0.70862  1.0000
  C   C10       1.0  0.39152  0.26449  0.79138  1.0000
  C   C11       1.0  0.26449  0.39152  0.29138  1.0000
  C   C12       1.0  0.60848  0.73551  0.20862  1.0000
  C   C13       1.0  0.78147  0.49356  0.68790  1.0000
  C   C14       1.0  0.50644  0.21852  0.81210  1.0000
  C   C15       1.0  0.21853  0.50644  0.31210  1.0000
  C   C16       1.0  0.49356  0.78147  0.18790  1.0000
  C   C17       1.0  0.37201  0.08346  0.09166  1.0000
  C   C18       1.0  0.91654  0.62799  0.40834  1.0000
  C   C19       1.0  0.62799  0.91654  0.90834  1.0000
  C   C20       1.0  0.08346  0.37201  0.59166  1.0000
  C   C21       1.0  0.27455  0.99334  0.16674  1.0000
  C   C22       1.0  0.00666  0.72545  0.33326  1.0000
  C   C23       1.0  0.72545  0.00666  0.83326  1.0000
  C   C24       1.0  0.99334  0.27455  0.66674  1.0000
  N   N1        1.0  0.69877  0.11396  0.41764  1.0000
  N   N2        1.0  0.88604  0.30123  0.08236  1.0000
  N   N3        1.0  0.30123  0.88604  0.58236  1.0000
  N   N4        1.0  0.11396  0.69877  0.91765  1.0000
  N   N5        1.0  0.64280  0.98331  0.47118  1.0000
  N   N6        1.0  0.01669  0.35719  0.02881  1.0000
  N   N7        1.0  0.35719  0.01669  0.52882  1.0000
  N   N8        1.0  0.98331  0.64281  0.97119  1.0000
  N   N9        1.0  0.74085  0.92111  0.47048  1.0000
  N   N10       1.0  0.07889  0.25915  0.02952  1.0000
  N   N11       1.0  0.25915  0.07889  0.52952  1.0000
  N   N12       1.0  0.92111  0.74085  0.97048  1.0000
  N   N13       1.0  0.69779  0.40747  0.60041  1.0000
  N   N14       1.0  0.59252  0.30221  0.89959  1.0000
  N   N15       1.0  0.30221  0.59252  0.39959  1.0000
  N   N16       1.0  0.40747  0.69779  0.10041  1.0000
  N   N17       1.0  0.60523  0.46799  0.56927  1.0000
  N   N18       1.0  0.53201  0.39476  0.93073  1.0000
  N   N19       1.0  0.39477  0.53201  0.43073  1.0000
  N   N20       1.0  0.46799  0.60523  0.06927  1.0000
  N   N21       1.0  0.62581  0.59005  0.63297  1.0000
  N   N22       1.0  0.40995  0.37419  0.86703  1.0000
  N   N23       1.0  0.37419  0.40995  0.36703  1.0000
  N   N24       1.0  0.59005  0.62581  0.13297  1.0000
  N   N25       1.0  0.35284  0.06886  0.25787  1.0000
  N   N26       1.0  0.93114  0.64716  0.24213  1.0000
  N   N27       1.0  0.64716  0.93114  0.74213  1.0000
  N   N28       1.0  0.06886  0.35284  0.75787  1.0000
  N   N29       1.0  0.49229  0.19918  0.23860  1.0000
  N   N30       1.0  0.80082  0.50771  0.26140  1.0000
  N   N31       1.0  0.50771  0.80082  0.76140  1.0000
  N   N32       1.0  0.19918  0.49229  0.73860  1.0000
  N   N33       1.0  0.50683  0.21135  0.13865  1.0000
  N   N34       1.0  0.78865  0.49317  0.36135  1.0000
  N   N35       1.0  0.49317  0.78865  0.86135  1.0000
  N   N36       1.0  0.21135  0.50683  0.63865  1.0000
