data_image0
_chemical_formula_structural       Pr4H24C24N36
_chemical_formula_sum              "Pr4 H24 C24 N36"
_cell_length_a       9.53807
_cell_length_b       9.53807
_cell_length_c       13.0195
_cell_angle_alpha    92.0331
_cell_angle_beta     92.0328
_cell_angle_gamma    119.866

_space_group_name_H-M_alt    "P 1"
_space_group_IT_number       1

loop_
  _space_group_symop_operation_xyz
  'x, y, z'

loop_
  _atom_site_type_symbol
  _atom_site_label
  _atom_site_symmetry_multiplicity
  _atom_site_fract_x
  _atom_site_fract_y
  _atom_site_fract_z
  _atom_site_occupancy
  Pr  Pr1       1.0  0.51967  0.25649  0.42738  1.0000
  Pr  Pr2       1.0  0.74351  0.48033  0.07261  1.0000
  Pr  Pr3       1.0  0.48033  0.74351  0.57262  1.0000
  Pr  Pr4       1.0  0.25649  0.51967  0.92739  1.0000
  H   H1        1.0  0.96631  0.00403  0.40057  1.0000
  H   H2        1.0  0.99597  0.03369  0.09943  1.0000
  H   H3        1.0  0.03369  0.99596  0.59943  1.0000
  H   H4        1.0  0.00403  0.96631  0.90057  1.0000
  H   H5        1.0  0.90226  0.24386  0.33394  1.0000
  H   H6        1.0  0.75614  0.09774  0.16606  1.0000
  H   H7        1.0  0.09774  0.75614  0.66606  1.0000
  H   H8        1.0  0.24386  0.90226  0.83394  1.0000
  H   H9        1.0  0.78169  0.70360  0.76750  1.0000
  H   H10       1.0  0.29640  0.21831  0.73250  1.0000
  H   H11       1.0  0.21831  0.29640  0.23249  1.0000
  H   H12       1.0  0.70360  0.78169  0.26750  1.0000
  H   H13       1.0  0.86836  0.46731  0.72601  1.0000
  H   H14       1.0  0.53268  0.13164  0.77399  1.0000
  H   H15       1.0  0.13165  0.53269  0.27399  1.0000
  H   H16       1.0  0.46731  0.86836  0.22601  1.0000
  H   H17       1.0  0.36154  0.06547  0.00702  1.0000
  H   H18       1.0  0.93453  0.63846  0.49298  1.0000
  H   H19       1.0  0.63847  0.93453  0.99298  1.0000
  H   H20       1.0  0.06547  0.36154  0.50702  1.0000
  H   H21       1.0  0.15872  0.88575  0.15939  1.0000
  H   H22       1.0  0.11425  0.84128  0.34061  1.0000
  H   H23       1.0  0.84128  0.11425  0.84061  1.0000
  H   H24       1.0  0.88575  0.15872  0.65939  1.0000
  C   C1        1.0  0.86471  0.02242  0.41311  1.0000
  C   C2        1.0  0.97758  0.13529  0.08689  1.0000
  C   C3        1.0  0.13529  0.97758  0.58689  1.0000
  C   C4        1.0  0.02242  0.86471  0.91311  1.0000
  C   C5        1.0  0.83298  0.14160  0.37985  1.0000
  C   C6        1.0  0.85840  0.16702  0.12015  1.0000
  C   C7        1.0  0.16702  0.85840  0.62015  1.0000
  C   C8        1.0  0.14160  0.83298  0.87985  1.0000
  C   C9        1.0  0.74032  0.61016  0.70564  1.0000
  C   C10       1.0  0.38984  0.25968  0.79436  1.0000
  C   C11       1.0  0.25968  0.38985  0.29436  1.0000
  C   C12       1.0  0.61015  0.74032  0.20564  1.0000
  C   C13       1.0  0.78358  0.49290  0.68488  1.0000
  C   C14       1.0  0.50710  0.21642  0.81512  1.0000
  C   C15       1.0  0.21642  0.50710  0.31512  1.0000
  C   C16       1.0  0.49290  0.78358  0.18488  1.0000
  C   C17       1.0  0.37643  0.08531  0.08997  1.0000
  C   C18       1.0  0.91469  0.62357  0.41003  1.0000
  C   C19       1.0  0.62357  0.91469  0.91003  1.0000
  C   C20       1.0  0.08531  0.37643  0.58997  1.0000
  C   C21       1.0  0.27542  0.99649  0.16579  1.0000
  C   C22       1.0  0.00352  0.72458  0.33421  1.0000
  C   C23       1.0  0.72459  0.00352  0.83421  1.0000
  C   C24       1.0  0.99649  0.27542  0.66579  1.0000
  N   N1        1.0  0.69046  0.11249  0.41686  1.0000
  N   N2        1.0  0.88752  0.30954  0.08314  1.0000
  N   N3        1.0  0.30954  0.88751  0.58314  1.0000
  N   N4        1.0  0.11249  0.69046  0.91686  1.0000
  N   N5        1.0  0.63770  0.98059  0.47045  1.0000
  N   N6        1.0  0.01941  0.36230  0.02955  1.0000
  N   N7        1.0  0.36230  0.01941  0.52955  1.0000
  N   N8        1.0  0.98059  0.63770  0.97045  1.0000
  N   N9        1.0  0.74042  0.92365  0.46973  1.0000
  N   N10       1.0  0.07635  0.25958  0.03027  1.0000
  N   N11       1.0  0.25958  0.07635  0.53027  1.0000
  N   N12       1.0  0.92365  0.74042  0.96973  1.0000
  N   N13       1.0  0.69443  0.40385  0.59924  1.0000
  N   N14       1.0  0.59615  0.30557  0.90076  1.0000
  N   N15       1.0  0.30557  0.59615  0.40076  1.0000
  N   N16       1.0  0.40385  0.69443  0.09924  1.0000
  N   N17       1.0  0.60128  0.46466  0.56936  1.0000
  N   N18       1.0  0.53534  0.39872  0.93064  1.0000
  N   N19       1.0  0.39872  0.53534  0.43064  1.0000
  N   N20       1.0  0.46466  0.60128  0.06937  1.0000
  N   N21       1.0  0.62666  0.58997  0.63190  1.0000
  N   N22       1.0  0.41003  0.37334  0.86810  1.0000
  N   N23       1.0  0.37334  0.41003  0.36810  1.0000
  N   N24       1.0  0.58997  0.62666  0.13190  1.0000
  N   N25       1.0  0.35092  0.07222  0.25799  1.0000
  N   N26       1.0  0.92778  0.64908  0.24201  1.0000
  N   N27       1.0  0.64908  0.92778  0.74201  1.0000
  N   N28       1.0  0.07222  0.35092  0.75799  1.0000
  N   N29       1.0  0.49193  0.20150  0.23852  1.0000
  N   N30       1.0  0.79850  0.50807  0.26148  1.0000
  N   N31       1.0  0.50807  0.79850  0.76148  1.0000
  N   N32       1.0  0.20150  0.49193  0.73852  1.0000
  N   N33       1.0  0.51051  0.21283  0.13744  1.0000
  N   N34       1.0  0.78717  0.48949  0.36256  1.0000
  N   N35       1.0  0.48949  0.78717  0.86256  1.0000
  N   N36       1.0  0.21283  0.51051  0.63744  1.0000
