data_image0
_chemical_formula_structural       Nd4H24C24N36
_chemical_formula_sum              "Nd4 H24 C24 N36"
_cell_length_a       9.49101
_cell_length_b       9.49101
_cell_length_c       13.0073
_cell_angle_alpha    92.1954
_cell_angle_beta     92.1955
_cell_angle_gamma    119.8

_space_group_name_H-M_alt    "P 1"
_space_group_IT_number       1

loop_
  _space_group_symop_operation_xyz
  'x, y, z'

loop_
  _atom_site_type_symbol
  _atom_site_label
  _atom_site_symmetry_multiplicity
  _atom_site_fract_x
  _atom_site_fract_y
  _atom_site_fract_z
  _atom_site_occupancy
  Nd  Nd1       1.0  0.52268  0.25752  0.42698  1.0000
  Nd  Nd2       1.0  0.74248  0.47732  0.07302  1.0000
  Nd  Nd3       1.0  0.47732  0.74249  0.57302  1.0000
  Nd  Nd4       1.0  0.25752  0.52268  0.92698  1.0000
  H   H1        1.0  0.96124  0.99332  0.40092  1.0000
  H   H2        1.0  0.00668  0.03876  0.09908  1.0000
  H   H3        1.0  0.03876  0.00668  0.59908  1.0000
  H   H4        1.0  0.99333  0.96124  0.90092  1.0000
  H   H5        1.0  0.90227  0.23819  0.33520  1.0000
  H   H6        1.0  0.76181  0.09773  0.16480  1.0000
  H   H7        1.0  0.09773  0.76181  0.66480  1.0000
  H   H8        1.0  0.23819  0.90227  0.83520  1.0000
  H   H9        1.0  0.77245  0.70147  0.76971  1.0000
  H   H10       1.0  0.29853  0.22755  0.73029  1.0000
  H   H11       1.0  0.22755  0.29853  0.23029  1.0000
  H   H12       1.0  0.70147  0.77245  0.26971  1.0000
  H   H13       1.0  0.86542  0.46809  0.72910  1.0000
  H   H14       1.0  0.53191  0.13458  0.77090  1.0000
  H   H15       1.0  0.13458  0.53191  0.27090  1.0000
  H   H16       1.0  0.46809  0.86542  0.22910  1.0000
  H   H17       1.0  0.36720  0.05820  0.00782  1.0000
  H   H18       1.0  0.94180  0.63280  0.49218  1.0000
  H   H19       1.0  0.63280  0.94180  0.99218  1.0000
  H   H20       1.0  0.05820  0.36720  0.50782  1.0000
  H   H21       1.0  0.16531  0.87664  0.15977  1.0000
  H   H22       1.0  0.12336  0.83469  0.34023  1.0000
  H   H23       1.0  0.83468  0.12336  0.84023  1.0000
  H   H24       1.0  0.87664  0.16531  0.65977  1.0000
  C   C1        1.0  0.86128  0.01488  0.41427  1.0000
  C   C2        1.0  0.98512  0.13872  0.08573  1.0000
  C   C3        1.0  0.13873  0.98512  0.58573  1.0000
  C   C4        1.0  0.01488  0.86128  0.91427  1.0000
  C   C5        1.0  0.83184  0.13636  0.38131  1.0000
  C   C6        1.0  0.86364  0.16816  0.11869  1.0000
  C   C7        1.0  0.16816  0.86365  0.61869  1.0000
  C   C8        1.0  0.13636  0.83184  0.88131  1.0000
  C   C9        1.0  0.73478  0.60937  0.70677  1.0000
  C   C10       1.0  0.39063  0.26521  0.79323  1.0000
  C   C11       1.0  0.26521  0.39063  0.29323  1.0000
  C   C12       1.0  0.60937  0.73479  0.20677  1.0000
  C   C13       1.0  0.78131  0.49366  0.68638  1.0000
  C   C14       1.0  0.50634  0.21869  0.81362  1.0000
  C   C15       1.0  0.21869  0.50634  0.31362  1.0000
  C   C16       1.0  0.49366  0.78131  0.18638  1.0000
  C   C17       1.0  0.38084  0.07978  0.09084  1.0000
  C   C18       1.0  0.92022  0.61916  0.40916  1.0000
  C   C19       1.0  0.61916  0.92022  0.90916  1.0000
  C   C20       1.0  0.07978  0.38084  0.59084  1.0000
  C   C21       1.0  0.28029  0.99027  0.16658  1.0000
  C   C22       1.0  0.00973  0.71971  0.33342  1.0000
  C   C23       1.0  0.71971  0.00973  0.83342  1.0000
  C   C24       1.0  0.99027  0.28029  0.66658  1.0000
  N   N1        1.0  0.69028  0.11054  0.41898  1.0000
  N   N2        1.0  0.88946  0.30972  0.08103  1.0000
  N   N3        1.0  0.30972  0.88946  0.58102  1.0000
  N   N4        1.0  0.11054  0.69028  0.91898  1.0000
  N   N5        1.0  0.63601  0.97840  0.47274  1.0000
  N   N6        1.0  0.02160  0.36399  0.02726  1.0000
  N   N7        1.0  0.36399  0.02160  0.52726  1.0000
  N   N8        1.0  0.97840  0.63601  0.97274  1.0000
  N   N9        1.0  0.73663  0.91810  0.47138  1.0000
  N   N10       1.0  0.08190  0.26337  0.02862  1.0000
  N   N11       1.0  0.26337  0.08190  0.52862  1.0000
  N   N12       1.0  0.91810  0.73663  0.97138  1.0000
  N   N13       1.0  0.69584  0.40566  0.59881  1.0000
  N   N14       1.0  0.59433  0.30415  0.90119  1.0000
  N   N15       1.0  0.30415  0.59433  0.40119  1.0000
  N   N16       1.0  0.40567  0.69584  0.09881  1.0000
  N   N17       1.0  0.60192  0.46575  0.56754  1.0000
  N   N18       1.0  0.53425  0.39808  0.93246  1.0000
  N   N19       1.0  0.39808  0.53425  0.43246  1.0000
  N   N20       1.0  0.46575  0.60192  0.06754  1.0000
  N   N21       1.0  0.62304  0.58942  0.63102  1.0000
  N   N22       1.0  0.41058  0.37696  0.86898  1.0000
  N   N23       1.0  0.37696  0.41058  0.36898  1.0000
  N   N24       1.0  0.58942  0.62304  0.13102  1.0000
  N   N25       1.0  0.35419  0.06949  0.25892  1.0000
  N   N26       1.0  0.93050  0.64581  0.24108  1.0000
  N   N27       1.0  0.64581  0.93050  0.74108  1.0000
  N   N28       1.0  0.06949  0.35419  0.75892  1.0000
  N   N29       1.0  0.49375  0.20146  0.23951  1.0000
  N   N30       1.0  0.79854  0.50625  0.26049  1.0000
  N   N31       1.0  0.50625  0.79854  0.76049  1.0000
  N   N32       1.0  0.20146  0.49375  0.73951  1.0000
  N   N33       1.0  0.51292  0.21129  0.13838  1.0000
  N   N34       1.0  0.78871  0.48708  0.36162  1.0000
  N   N35       1.0  0.48708  0.78871  0.86162  1.0000
  N   N36       1.0  0.21129  0.51292  0.63838  1.0000
