data_image0
_chemical_formula_structural       Sm2H12C12N18
_chemical_formula_sum              "Sm2 H12 C12 N18"
_cell_length_a       8.6498
_cell_length_b       8.64954
_cell_length_c       9.35539
_cell_angle_alpha    62.4604
_cell_angle_beta     62.4644
_cell_angle_gamma    59.9968

_space_group_name_H-M_alt    "P 1"
_space_group_IT_number       1

loop_
  _space_group_symop_operation_xyz
  'x, y, z'

loop_
  _atom_site_type_symbol
  _atom_site_label
  _atom_site_symmetry_multiplicity
  _atom_site_fract_x
  _atom_site_fract_y
  _atom_site_fract_z
  _atom_site_occupancy
  Sm  Sm1       1.0  0.80685  0.80684  0.57947  1.0000
  Sm  Sm2       1.0  0.19315  0.19316  0.42053  1.0000
  H   H1        1.0  0.32388  0.77446  0.79540  1.0000
  H   H2        1.0  0.77461  0.10611  0.79537  1.0000
  H   H3        1.0  0.10621  0.32391  0.79536  1.0000
  H   H4        1.0  0.67612  0.22554  0.20460  1.0000
  H   H5        1.0  0.22539  0.89389  0.20463  1.0000
  H   H6        1.0  0.89379  0.67609  0.20464  1.0000
  H   H7        1.0  0.14901  0.51281  0.96375  1.0000
  H   H8        1.0  0.51286  0.37430  0.96370  1.0000
  H   H9        1.0  0.37446  0.14916  0.96359  1.0000
  H   H10       1.0  0.85099  0.48719  0.03625  1.0000
  H   H11       1.0  0.48714  0.62570  0.03630  1.0000
  H   H12       1.0  0.62553  0.85084  0.03641  1.0000
  C   C1        1.0  0.13032  0.63618  0.85510  1.0000
  C   C2        1.0  0.63623  0.37830  0.85507  1.0000
  C   C3        1.0  0.37844  0.13047  0.85496  1.0000
  C   C4        1.0  0.86968  0.36382  0.14490  1.0000
  C   C5        1.0  0.36377  0.62170  0.14493  1.0000
  C   C6        1.0  0.62156  0.86953  0.14504  1.0000
  C   C7        1.0  0.21696  0.76657  0.77200  1.0000
  C   C8        1.0  0.76666  0.24437  0.77198  1.0000
  C   C9        1.0  0.24445  0.21704  0.77192  1.0000
  C   C10       1.0  0.78304  0.23343  0.22800  1.0000
  C   C11       1.0  0.23334  0.75564  0.22802  1.0000
  C   C12       1.0  0.75555  0.78295  0.22808  1.0000
  N   N1        1.0  0.01912  0.84527  0.64856  1.0000
  N   N2        1.0  0.84527  0.48700  0.64857  1.0000
  N   N3        1.0  0.48704  0.01914  0.64853  1.0000
  N   N4        1.0  0.98088  0.15473  0.35144  1.0000
  N   N5        1.0  0.15473  0.51300  0.35143  1.0000
  N   N6        1.0  0.51296  0.98086  0.35147  1.0000
  N   N7        1.0  0.00714  0.68919  0.77528  1.0000
  N   N8        1.0  0.68918  0.52831  0.77526  1.0000
  N   N9        1.0  0.52843  0.00727  0.77516  1.0000
  N   N10       1.0  0.99286  0.31081  0.22472  1.0000
  N   N11       1.0  0.31082  0.47169  0.22474  1.0000
  N   N12       1.0  0.47157  0.99273  0.22484  1.0000
  N   N13       1.0  0.14530  0.89529  0.64315  1.0000
  N   N14       1.0  0.89536  0.31619  0.64316  1.0000
  N   N15       1.0  0.31623  0.14528  0.64315  1.0000
  N   N16       1.0  0.85470  0.10471  0.35685  1.0000
  N   N17       1.0  0.10464  0.68381  0.35684  1.0000
  N   N18       1.0  0.68377  0.85472  0.35685  1.0000
