data_image0
_chemical_formula_structural       Sm4H24C24N36
_chemical_formula_sum              "Sm4 H24 C24 N36"
_cell_length_a       9.41189
_cell_length_b       9.41189
_cell_length_c       12.8299
_cell_angle_alpha    92.1873
_cell_angle_beta     92.1876
_cell_angle_gamma    119.751

_space_group_name_H-M_alt    "P 1"
_space_group_IT_number       1

loop_
  _space_group_symop_operation_xyz
  'x, y, z'

loop_
  _atom_site_type_symbol
  _atom_site_label
  _atom_site_symmetry_multiplicity
  _atom_site_fract_x
  _atom_site_fract_y
  _atom_site_fract_z
  _atom_site_occupancy
  Sm  Sm1       1.0  0.52253  0.25712  0.42774  1.0000
  Sm  Sm2       1.0  0.74288  0.47747  0.07226  1.0000
  Sm  Sm3       1.0  0.47747  0.74288  0.57226  1.0000
  Sm  Sm4       1.0  0.25712  0.52253  0.92774  1.0000
  H   H1        1.0  0.96455  0.99601  0.39980  1.0000
  H   H2        1.0  0.00398  0.03544  0.10021  1.0000
  H   H3        1.0  0.03545  0.00399  0.60021  1.0000
  H   H4        1.0  0.99601  0.96455  0.89980  1.0000
  H   H5        1.0  0.90419  0.24336  0.33549  1.0000
  H   H6        1.0  0.75663  0.09580  0.16451  1.0000
  H   H7        1.0  0.09581  0.75664  0.66451  1.0000
  H   H8        1.0  0.24336  0.90419  0.83549  1.0000
  H   H9        1.0  0.77161  0.70632  0.77004  1.0000
  H   H10       1.0  0.29369  0.22839  0.72996  1.0000
  H   H11       1.0  0.22839  0.29369  0.22996  1.0000
  H   H12       1.0  0.70632  0.77160  0.27003  1.0000
  H   H13       1.0  0.86546  0.47045  0.73334  1.0000
  H   H14       1.0  0.52957  0.13453  0.76666  1.0000
  H   H15       1.0  0.13453  0.52957  0.26666  1.0000
  H   H16       1.0  0.47045  0.86545  0.23334  1.0000
  H   H17       1.0  0.36572  0.06324  0.00478  1.0000
  H   H18       1.0  0.93676  0.63429  0.49522  1.0000
  H   H19       1.0  0.63428  0.93676  0.99522  1.0000
  H   H20       1.0  0.06324  0.36572  0.50478  1.0000
  H   H21       1.0  0.16330  0.87697  0.15795  1.0000
  H   H22       1.0  0.12302  0.83671  0.34205  1.0000
  H   H23       1.0  0.83671  0.12303  0.84205  1.0000
  H   H24       1.0  0.87697  0.16329  0.65795  1.0000
  C   C1        1.0  0.86294  0.01653  0.41331  1.0000
  C   C2        1.0  0.98347  0.13706  0.08670  1.0000
  C   C3        1.0  0.13707  0.98348  0.58669  1.0000
  C   C4        1.0  0.01653  0.86294  0.91331  1.0000
  C   C5        1.0  0.83293  0.13941  0.38119  1.0000
  C   C6        1.0  0.86058  0.16706  0.11882  1.0000
  C   C7        1.0  0.16706  0.86058  0.61882  1.0000
  C   C8        1.0  0.13941  0.83293  0.88119  1.0000
  C   C9        1.0  0.73433  0.61252  0.70699  1.0000
  C   C10       1.0  0.38750  0.26566  0.79301  1.0000
  C   C11       1.0  0.26566  0.38750  0.29301  1.0000
  C   C12       1.0  0.61252  0.73433  0.20699  1.0000
  C   C13       1.0  0.78121  0.49528  0.68847  1.0000
  C   C14       1.0  0.50472  0.21879  0.81154  1.0000
  C   C15       1.0  0.21879  0.50473  0.31154  1.0000
  C   C16       1.0  0.49528  0.78121  0.18847  1.0000
  C   C17       1.0  0.38028  0.08331  0.08902  1.0000
  C   C18       1.0  0.91668  0.61973  0.41098  1.0000
  C   C19       1.0  0.61972  0.91669  0.91098  1.0000
  C   C20       1.0  0.08331  0.38028  0.58902  1.0000
  C   C21       1.0  0.27923  0.99137  0.16542  1.0000
  C   C22       1.0  0.00863  0.72078  0.33458  1.0000
  C   C23       1.0  0.72077  0.00863  0.83458  1.0000
  C   C24       1.0  0.99137  0.27923  0.66542  1.0000
  N   N1        1.0  0.68954  0.11182  0.41910  1.0000
  N   N2        1.0  0.88817  0.31046  0.08090  1.0000
  N   N3        1.0  0.31046  0.88818  0.58089  1.0000
  N   N4        1.0  0.11182  0.68954  0.91910  1.0000
  N   N5        1.0  0.63465  0.97702  0.47205  1.0000
  N   N6        1.0  0.02298  0.36534  0.02795  1.0000
  N   N7        1.0  0.36534  0.02298  0.52795  1.0000
  N   N8        1.0  0.97702  0.63465  0.97205  1.0000
  N   N9        1.0  0.73662  0.91691  0.47007  1.0000
  N   N10       1.0  0.08309  0.26338  0.02993  1.0000
  N   N11       1.0  0.26338  0.08309  0.52993  1.0000
  N   N12       1.0  0.91691  0.73662  0.97007  1.0000
  N   N13       1.0  0.69571  0.40478  0.60010  1.0000
  N   N14       1.0  0.59523  0.30428  0.89989  1.0000
  N   N15       1.0  0.30428  0.59523  0.39989  1.0000
  N   N16       1.0  0.40478  0.69571  0.10010  1.0000
  N   N17       1.0  0.60160  0.46501  0.56661  1.0000
  N   N18       1.0  0.53500  0.39839  0.93339  1.0000
  N   N19       1.0  0.39839  0.53500  0.43339  1.0000
  N   N20       1.0  0.46501  0.60160  0.06661  1.0000
  N   N21       1.0  0.62253  0.59111  0.62927  1.0000
  N   N22       1.0  0.40890  0.37746  0.87073  1.0000
  N   N23       1.0  0.37746  0.40890  0.37073  1.0000
  N   N24       1.0  0.59111  0.62253  0.12927  1.0000
  N   N25       1.0  0.35415  0.06943  0.25935  1.0000
  N   N26       1.0  0.93057  0.64585  0.24065  1.0000
  N   N27       1.0  0.64585  0.93057  0.74065  1.0000
  N   N28       1.0  0.06943  0.35415  0.75935  1.0000
  N   N29       1.0  0.49460  0.20278  0.24023  1.0000
  N   N30       1.0  0.79722  0.50540  0.25977  1.0000
  N   N31       1.0  0.50540  0.79722  0.75977  1.0000
  N   N32       1.0  0.20278  0.49460  0.74023  1.0000
  N   N33       1.0  0.51354  0.21492  0.13773  1.0000
  N   N34       1.0  0.78508  0.48646  0.36227  1.0000
  N   N35       1.0  0.48646  0.78508  0.86227  1.0000
  N   N36       1.0  0.21492  0.51354  0.63774  1.0000
