data_image0
_chemical_formula_structural       Cu4H20C20I4Br4N8
_chemical_formula_sum              "Cu4 H20 C20 I4 Br4 N8"
_cell_length_a       4.11478
_cell_length_b       8.65373
_cell_length_c       21.7612
_cell_angle_alpha    97.8654
_cell_angle_beta     89.9983
_cell_angle_gamma    90.0001

_space_group_name_H-M_alt    "P 1"
_space_group_IT_number       1

loop_
  _space_group_symop_operation_xyz
  'x, y, z'

loop_
  _atom_site_type_symbol
  _atom_site_label
  _atom_site_symmetry_multiplicity
  _atom_site_fract_x
  _atom_site_fract_y
  _atom_site_fract_z
  _atom_site_occupancy
  Cu  Cu1       1.0  0.16113  0.03811  0.70762  1.0000
  Cu  Cu2       1.0  0.66123  0.96189  0.79238  1.0000
  Cu  Cu3       1.0  0.83884  0.96190  0.29238  1.0000
  Cu  Cu4       1.0  0.33878  0.03811  0.20762  1.0000
  H   H1        1.0  0.52192  0.29077  0.73301  1.0000
  H   H2        1.0  0.02193  0.70923  0.76699  1.0000
  H   H3        1.0  0.47808  0.70923  0.26699  1.0000
  H   H4        1.0  0.97806  0.29077  0.23301  1.0000
  H   H5        1.0  0.57927  0.47926  0.71817  1.0000
  H   H6        1.0  0.07928  0.52074  0.78182  1.0000
  H   H7        1.0  0.42073  0.52074  0.28183  1.0000
  H   H8        1.0  0.92072  0.47926  0.21817  1.0000
  H   H9        1.0  0.88161  0.52592  0.54968  1.0000
  H   H10       1.0  0.38159  0.47407  0.95032  1.0000
  H   H11       1.0  0.11840  0.47409  0.45032  1.0000
  H   H12       1.0  0.61841  0.52592  0.04968  1.0000
  H   H13       1.0  0.22860  0.58941  0.64313  1.0000
  H   H14       1.0  0.72861  0.41058  0.85687  1.0000
  H   H15       1.0  0.77140  0.41059  0.35688  1.0000
  H   H16       1.0  0.27140  0.58941  0.14313  1.0000
  H   H17       1.0  0.87230  0.04697  0.58535  1.0000
  H   H18       1.0  0.37229  0.95302  0.91465  1.0000
  H   H19       1.0  0.12772  0.95303  0.41465  1.0000
  H   H20       1.0  0.62770  0.04697  0.08535  1.0000
  C   C1        1.0  0.95570  0.43449  0.57652  1.0000
  C   C2        1.0  0.45570  0.56551  0.92348  1.0000
  C   C3        1.0  0.04430  0.56550  0.42348  1.0000
  C   C4        1.0  0.54431  0.43450  0.07652  1.0000
  C   C5        1.0  0.86461  0.27879  0.55909  1.0000
  C   C6        1.0  0.36459  0.72120  0.94091  1.0000
  C   C7        1.0  0.13540  0.72122  0.44091  1.0000
  C   C8        1.0  0.63540  0.27879  0.05909  1.0000
  C   C9        1.0  0.14558  0.47022  0.62887  1.0000
  C   C10       1.0  0.64557  0.52977  0.87113  1.0000
  C   C11       1.0  0.85442  0.52978  0.37113  1.0000
  C   C12       1.0  0.35442  0.47023  0.12887  1.0000
  C   C13       1.0  0.94776  0.16823  0.59666  1.0000
  C   C14       1.0  0.44776  0.83177  0.90334  1.0000
  C   C15       1.0  0.05223  0.83177  0.40334  1.0000
  C   C16       1.0  0.55222  0.16824  0.09666  1.0000
  C   C17       1.0  0.23668  0.35143  0.66382  1.0000
  C   C18       1.0  0.73669  0.64857  0.83617  1.0000
  C   C19       1.0  0.76332  0.64857  0.33618  1.0000
  C   C20       1.0  0.26331  0.35143  0.16382  1.0000
  I   I1        1.0  0.65135  0.84945  0.67451  1.0000
  I   I2        1.0  0.15142  0.15055  0.82549  1.0000
  I   I3        1.0  0.34863  0.15055  0.32549  1.0000
  I   I4        1.0  0.84859  0.84945  0.17450  1.0000
  Br  Br1       1.0  0.64533  0.21749  0.48249  1.0000
  Br  Br2       1.0  0.14528  0.78250  0.01751  1.0000
  Br  Br3       1.0  0.35468  0.78251  0.51751  1.0000
  Br  Br4       1.0  0.85472  0.21749  0.98249  1.0000
  N   N1        1.0  0.42936  0.38445  0.71522  1.0000
  N   N2        1.0  0.92936  0.61555  0.78478  1.0000
  N   N3        1.0  0.57064  0.61555  0.28478  1.0000
  N   N4        1.0  0.07063  0.38445  0.21522  1.0000
  N   N5        1.0  0.12389  0.20332  0.64931  1.0000
  N   N6        1.0  0.62389  0.79668  0.85069  1.0000
  N   N7        1.0  0.87612  0.79668  0.35069  1.0000
  N   N8        1.0  0.37611  0.20332  0.14931  1.0000
