data_image0
_chemical_formula_structural       La4H12C4S4O28
_chemical_formula_sum              "La4 H12 C4 S4 O28"
_cell_length_a       7.02612
_cell_length_b       7.02831
_cell_length_c       11.7469
_cell_angle_alpha    90.0009
_cell_angle_beta     89.9999
_cell_angle_gamma    90.0444

_space_group_name_H-M_alt    "P 1"
_space_group_IT_number       1

loop_
  _space_group_symop_operation_xyz
  'x, y, z'

loop_
  _atom_site_type_symbol
  _atom_site_label
  _atom_site_symmetry_multiplicity
  _atom_site_fract_x
  _atom_site_fract_y
  _atom_site_fract_z
  _atom_site_occupancy
  La  La1       1.0  0.35373  0.10763  0.15629  1.0000
  La  La2       1.0  0.64627  0.89237  0.65631  1.0000
  La  La3       1.0  0.89283  0.35395  0.40645  1.0000
  La  La4       1.0  0.10719  0.64606  0.90646  1.0000
  H   H1        1.0  0.83501  0.00466  0.11251  1.0000
  H   H2        1.0  0.16501  0.99533  0.61252  1.0000
  H   H3        1.0  0.99589  0.83544  0.36240  1.0000
  H   H4        1.0  0.00414  0.16458  0.86239  1.0000
  H   H5        1.0  0.58701  0.19058  0.92642  1.0000
  H   H6        1.0  0.41299  0.80941  0.42642  1.0000
  H   H7        1.0  0.81046  0.58761  0.17658  1.0000
  H   H8        1.0  0.18955  0.41239  0.67657  1.0000
  H   H9        1.0  0.52391  0.38349  0.98047  1.0000
  H   H10       1.0  0.47610  0.61650  0.48047  1.0000
  H   H11       1.0  0.61740  0.52422  0.23045  1.0000
  H   H12       1.0  0.38259  0.47578  0.73045  1.0000
  C   C1        1.0  0.84316  0.08961  0.19113  1.0000
  C   C2        1.0  0.15685  0.91038  0.69114  1.0000
  C   C3        1.0  0.91103  0.84339  0.44104  1.0000
  C   C4        1.0  0.08897  0.15662  0.94103  1.0000
  S   S1        1.0  0.61680  0.74593  0.96793  1.0000
  S   S2        1.0  0.38318  0.25406  0.46791  1.0000
  S   S3        1.0  0.25455  0.61693  0.21807  1.0000
  S   S4        1.0  0.74547  0.38307  0.71808  1.0000
  O   O1        1.0  0.67695  0.85755  0.86699  1.0000
  O   O2        1.0  0.32303  0.14248  0.36701  1.0000
  O   O3        1.0  0.14214  0.67647  0.11735  1.0000
  O   O4        1.0  0.85785  0.32351  0.61735  1.0000
  O   O5        1.0  0.46625  0.60529  0.93489  1.0000
  O   O6        1.0  0.53374  0.39471  0.43489  1.0000
  O   O7        1.0  0.39511  0.46666  0.18488  1.0000
  O   O8        1.0  0.60489  0.53335  0.68488  1.0000
  O   O9        1.0  0.53772  0.87309  0.05590  1.0000
  O   O10       1.0  0.46227  0.12689  0.55591  1.0000
  O   O11       1.0  0.12806  0.53787  0.30652  1.0000
  O   O12       1.0  0.87193  0.46211  0.80651  1.0000
  O   O13       1.0  0.78641  0.64711  0.01491  1.0000
  O   O14       1.0  0.21358  0.35291  0.51492  1.0000
  O   O15       1.0  0.35360  0.78685  0.26466  1.0000
  O   O16       1.0  0.64638  0.21316  0.76466  1.0000
  O   O17       1.0  0.69133  0.13200  0.24357  1.0000
  O   O18       1.0  0.30867  0.86801  0.74357  1.0000
  O   O19       1.0  0.86880  0.69158  0.49354  1.0000
  O   O20       1.0  0.13122  0.30842  0.99353  1.0000
  O   O21       1.0  0.00640  0.14120  0.22781  1.0000
  O   O22       1.0  0.99359  0.85880  0.72782  1.0000
  O   O23       1.0  0.85950  0.00659  0.47778  1.0000
  O   O24       1.0  0.14051  0.99342  0.97777  1.0000
  O   O25       1.0  0.54993  0.24830  0.99935  1.0000
  O   O26       1.0  0.45008  0.75168  0.49935  1.0000
  O   O27       1.0  0.75257  0.55039  0.24947  1.0000
  O   O28       1.0  0.24742  0.44961  0.74946  1.0000
