data_image0
_chemical_formula_structural       Nd4H12C4S4O28
_chemical_formula_sum              "Nd4 H12 C4 S4 O28"
_cell_length_a       6.97998
_cell_length_b       6.98025
_cell_length_c       11.687
_cell_angle_alpha    90
_cell_angle_beta     90
_cell_angle_gamma    89.9811

_space_group_name_H-M_alt    "P 1"
_space_group_IT_number       1

loop_
  _space_group_symop_operation_xyz
  'x, y, z'

loop_
  _atom_site_type_symbol
  _atom_site_label
  _atom_site_symmetry_multiplicity
  _atom_site_fract_x
  _atom_site_fract_y
  _atom_site_fract_z
  _atom_site_occupancy
  Nd  Nd1       1.0  0.38187  0.87183  0.97209  1.0000
  Nd  Nd2       1.0  0.61813  0.12817  0.47209  1.0000
  Nd  Nd3       1.0  0.12817  0.38196  0.22219  1.0000
  Nd  Nd4       1.0  0.87183  0.61804  0.72219  1.0000
  H   H1        1.0  0.47618  0.36187  0.93053  1.0000
  H   H2        1.0  0.52381  0.63813  0.43053  1.0000
  H   H3        1.0  0.63815  0.47599  0.18054  1.0000
  H   H4        1.0  0.36185  0.52401  0.68054  1.0000
  H   H5        1.0  0.11348  0.04744  0.79123  1.0000
  H   H6        1.0  0.88653  0.95256  0.29123  1.0000
  H   H7        1.0  0.95248  0.11368  0.04137  1.0000
  H   H8        1.0  0.04752  0.88632  0.54137  1.0000
  H   H9        1.0  0.32037  0.10443  0.74690  1.0000
  H   H10       1.0  0.67963  0.89557  0.24690  1.0000
  H   H11       1.0  0.89563  0.32055  0.99695  1.0000
  H   H12       1.0  0.10437  0.67945  0.49695  1.0000
  C   C1        1.0  0.38727  0.36627  0.00836  1.0000
  C   C2        1.0  0.61273  0.63373  0.50836  1.0000
  C   C3        1.0  0.63362  0.38719  0.25838  1.0000
  C   C4        1.0  0.36638  0.61281  0.75838  1.0000
  S   S1        1.0  0.88517  0.73583  0.03228  1.0000
  S   S2        1.0  0.11483  0.26417  0.53228  1.0000
  S   S3        1.0  0.26414  0.88509  0.28221  1.0000
  S   S4        1.0  0.73586  0.11491  0.78221  1.0000
  O   O1        1.0  0.03461  0.88658  0.01098  1.0000
  O   O2        1.0  0.96539  0.11342  0.51098  1.0000
  O   O3        1.0  0.11334  0.03458  0.26082  1.0000
  O   O4        1.0  0.88666  0.96542  0.76082  1.0000
  O   O5        1.0  0.94173  0.61969  0.13187  1.0000
  O   O6        1.0  0.05827  0.38031  0.63187  1.0000
  O   O7        1.0  0.38043  0.94192  0.38164  1.0000
  O   O8        1.0  0.61957  0.05808  0.88164  1.0000
  O   O9        1.0  0.86764  0.61133  0.93040  1.0000
  O   O10       1.0  0.13236  0.38867  0.43040  1.0000
  O   O11       1.0  0.38851  0.86713  0.18030  1.0000
  O   O12       1.0  0.61149  0.13286  0.68029  1.0000
  O   O13       1.0  0.70008  0.82744  0.05942  1.0000
  O   O14       1.0  0.29992  0.17256  0.55942  1.0000
  O   O15       1.0  0.17258  0.70013  0.30961  1.0000
  O   O16       1.0  0.82742  0.29987  0.80961  1.0000
  O   O17       1.0  0.34131  0.21036  0.05697  1.0000
  O   O18       1.0  0.65869  0.78964  0.55697  1.0000
  O   O19       1.0  0.78945  0.34129  0.30716  1.0000
  O   O20       1.0  0.21055  0.65871  0.80716  1.0000
  O   O21       1.0  0.33596  0.52820  0.04929  1.0000
  O   O22       1.0  0.66404  0.47180  0.54929  1.0000
  O   O23       1.0  0.47161  0.33589  0.29918  1.0000
  O   O24       1.0  0.52839  0.66411  0.79918  1.0000
  O   O25       1.0  0.24665  0.07433  0.81611  1.0000
  O   O26       1.0  0.75334  0.92567  0.31611  1.0000
  O   O27       1.0  0.92558  0.24688  0.06622  1.0000
  O   O28       1.0  0.07442  0.75312  0.56622  1.0000
