data_image0
_chemical_formula_structural       Nd4H12C4S4O28
_chemical_formula_sum              "Nd4 H12 C4 S4 O28"
_cell_length_a       6.9628
_cell_length_b       6.96244
_cell_length_c       11.6143
_cell_angle_alpha    90
_cell_angle_beta     90
_cell_angle_gamma    90.0025

_space_group_name_H-M_alt    "P 1"
_space_group_IT_number       1

loop_
  _space_group_symop_operation_xyz
  'x, y, z'

loop_
  _atom_site_type_symbol
  _atom_site_label
  _atom_site_symmetry_multiplicity
  _atom_site_fract_x
  _atom_site_fract_y
  _atom_site_fract_z
  _atom_site_occupancy
  Nd  Nd1       1.0  0.63876  0.11293  0.99533  1.0000
  Nd  Nd2       1.0  0.36124  0.88706  0.49533  1.0000
  Nd  Nd3       1.0  0.88708  0.63873  0.74535  1.0000
  Nd  Nd4       1.0  0.11293  0.36127  0.24535  1.0000
  H   H1        1.0  0.15474  0.01946  0.94870  1.0000
  H   H2        1.0  0.84526  0.98055  0.44871  1.0000
  H   H3        1.0  0.98050  0.15464  0.69863  1.0000
  H   H4        1.0  0.01950  0.84536  0.19863  1.0000
  H   H5        1.0  0.46796  0.38222  0.81803  1.0000
  H   H6        1.0  0.53205  0.61778  0.31803  1.0000
  H   H7        1.0  0.61766  0.46791  0.56805  1.0000
  H   H8        1.0  0.38234  0.53209  0.06805  1.0000
  H   H9        1.0  0.40590  0.18206  0.76771  1.0000
  H   H10       1.0  0.59409  0.81793  0.26771  1.0000
  H   H11       1.0  0.81783  0.40595  0.51773  1.0000
  H   H12       1.0  0.18218  0.59406  0.01774  1.0000
  C   C1        1.0  0.14753  0.10265  0.02914  1.0000
  C   C2        1.0  0.85247  0.89736  0.52915  1.0000
  C   C3        1.0  0.89741  0.14744  0.77910  1.0000
  C   C4        1.0  0.10259  0.85257  0.27910  1.0000
  S   S1        1.0  0.75178  0.61548  0.05688  1.0000
  S   S2        1.0  0.24821  0.38451  0.55688  1.0000
  S   S3        1.0  0.38446  0.75159  0.80680  1.0000
  S   S4        1.0  0.61554  0.24840  0.30679  1.0000
  O   O1        1.0  0.98365  0.15220  0.06892  1.0000
  O   O2        1.0  0.01635  0.84780  0.56893  1.0000
  O   O3        1.0  0.84791  0.98348  0.81886  1.0000
  O   O4        1.0  0.15210  0.01652  0.31886  1.0000
  O   O5        1.0  0.87033  0.65848  0.95442  1.0000
  O   O6        1.0  0.12967  0.34152  0.45442  1.0000
  O   O7        1.0  0.34132  0.87008  0.70431  1.0000
  O   O8        1.0  0.65867  0.12992  0.20431  1.0000
  O   O9        1.0  0.87370  0.54358  0.15102  1.0000
  O   O10       1.0  0.12630  0.45642  0.65103  1.0000
  O   O11       1.0  0.45625  0.87367  0.90090  1.0000
  O   O12       1.0  0.54375  0.12633  0.40090  1.0000
  O   O13       1.0  0.65540  0.79336  0.09674  1.0000
  O   O14       1.0  0.34460  0.20664  0.59674  1.0000
  O   O15       1.0  0.20671  0.65496  0.84663  1.0000
  O   O16       1.0  0.79329  0.34503  0.34662  1.0000
  O   O17       1.0  0.60595  0.46434  0.02750  1.0000
  O   O18       1.0  0.39405  0.53565  0.52750  1.0000
  O   O19       1.0  0.53574  0.60586  0.77746  1.0000
  O   O20       1.0  0.46426  0.39414  0.27746  1.0000
  O   O21       1.0  0.30158  0.14480  0.08161  1.0000
  O   O22       1.0  0.69841  0.85521  0.58161  1.0000
  O   O23       1.0  0.85533  0.30141  0.83164  1.0000
  O   O24       1.0  0.14468  0.69859  0.33164  1.0000
  O   O25       1.0  0.44079  0.24706  0.83976  1.0000
  O   O26       1.0  0.55921  0.75294  0.33977  1.0000
  O   O27       1.0  0.75280  0.44066  0.58980  1.0000
  O   O28       1.0  0.24720  0.55934  0.08980  1.0000
