data_image0
_chemical_formula_structural       Pr4H12C4S4O28
_chemical_formula_sum              "Pr4 H12 C4 S4 O28"
_cell_length_a       6.9862
_cell_length_b       6.98679
_cell_length_c       11.6718
_cell_angle_alpha    90.0001
_cell_angle_beta     90.0005
_cell_angle_gamma    90.0121

_space_group_name_H-M_alt    "P 1"
_space_group_IT_number       1

loop_
  _space_group_symop_operation_xyz
  'x, y, z'

loop_
  _atom_site_type_symbol
  _atom_site_label
  _atom_site_symmetry_multiplicity
  _atom_site_fract_x
  _atom_site_fract_y
  _atom_site_fract_z
  _atom_site_occupancy
  Pr  Pr1       1.0  0.35883  0.11197  0.15674  1.0000
  Pr  Pr2       1.0  0.64118  0.88802  0.65674  1.0000
  Pr  Pr3       1.0  0.88819  0.35865  0.40675  1.0000
  Pr  Pr4       1.0  0.11179  0.64135  0.90675  1.0000
  H   H1        1.0  0.84271  0.01282  0.11170  1.0000
  H   H2        1.0  0.15731  0.98717  0.61169  1.0000
  H   H3        1.0  0.98647  0.84217  0.36153  1.0000
  H   H4        1.0  0.01353  0.15784  0.86153  1.0000
  H   H5        1.0  0.59234  0.18424  0.92773  1.0000
  H   H6        1.0  0.40766  0.81575  0.42773  1.0000
  H   H7        1.0  0.81612  0.59217  0.17772  1.0000
  H   H8        1.0  0.18387  0.40783  0.67772  1.0000
  H   H9        1.0  0.53027  0.38227  0.97880  1.0000
  H   H10       1.0  0.46972  0.61773  0.47881  1.0000
  H   H11       1.0  0.61798  0.53025  0.22882  1.0000
  H   H12       1.0  0.38201  0.46975  0.72882  1.0000
  C   C1        1.0  0.84975  0.09733  0.19118  1.0000
  C   C2        1.0  0.15026  0.90268  0.69119  1.0000
  C   C3        1.0  0.90230  0.84938  0.44113  1.0000
  C   C4        1.0  0.09769  0.15064  0.94113  1.0000
  S   S1        1.0  0.61564  0.74964  0.96803  1.0000
  S   S2        1.0  0.38435  0.25035  0.46803  1.0000
  S   S3        1.0  0.25047  0.61587  0.21813  1.0000
  S   S4        1.0  0.74954  0.38413  0.71813  1.0000
  O   O1        1.0  0.66410  0.86678  0.86645  1.0000
  O   O2        1.0  0.33592  0.13321  0.36645  1.0000
  O   O3        1.0  0.13322  0.66420  0.11655  1.0000
  O   O4        1.0  0.86679  0.33581  0.61655  1.0000
  O   O5        1.0  0.46527  0.60504  0.93709  1.0000
  O   O6        1.0  0.53473  0.39496  0.43710  1.0000
  O   O7        1.0  0.39489  0.46536  0.18728  1.0000
  O   O8        1.0  0.60511  0.53463  0.68728  1.0000
  O   O9        1.0  0.54040  0.87220  0.06020  1.0000
  O   O10       1.0  0.45960  0.12780  0.56020  1.0000
  O   O11       1.0  0.12791  0.54088  0.31041  1.0000
  O   O12       1.0  0.87209  0.45912  0.81041  1.0000
  O   O13       1.0  0.79112  0.65276  0.01010  1.0000
  O   O14       1.0  0.20887  0.34723  0.51009  1.0000
  O   O15       1.0  0.34754  0.79136  0.26005  1.0000
  O   O16       1.0  0.65247  0.20863  0.76005  1.0000
  O   O17       1.0  0.69637  0.13993  0.24333  1.0000
  O   O18       1.0  0.30363  0.86007  0.74333  1.0000
  O   O19       1.0  0.85974  0.69607  0.49336  1.0000
  O   O20       1.0  0.14026  0.30394  0.99336  1.0000
  O   O21       1.0  0.01322  0.14784  0.23002  1.0000
  O   O22       1.0  0.98678  0.85216  0.73002  1.0000
  O   O23       1.0  0.85214  0.01295  0.47997  1.0000
  O   O24       1.0  0.14785  0.98706  0.97997  1.0000
  O   O25       1.0  0.55708  0.24726  0.99995  1.0000
  O   O26       1.0  0.44292  0.75273  0.49996  1.0000
  O   O27       1.0  0.75308  0.55677  0.24991  1.0000
  O   O28       1.0  0.24691  0.44323  0.74991  1.0000
