data_image0
_chemical_formula_structural       Mn2H30C40N10O14
_chemical_formula_sum              "Mn2 H30 C40 N10 O14"
_cell_length_a       7.35766
_cell_length_b       10.6322
_cell_length_c       13.6984
_cell_angle_alpha    80.184
_cell_angle_beta     74.4294
_cell_angle_gamma    69.7674

_space_group_name_H-M_alt    "P 1"
_space_group_IT_number       1

loop_
  _space_group_symop_operation_xyz
  'x, y, z'

loop_
  _atom_site_type_symbol
  _atom_site_label
  _atom_site_symmetry_multiplicity
  _atom_site_fract_x
  _atom_site_fract_y
  _atom_site_fract_z
  _atom_site_occupancy
  Mn  Mn1       1.0  0.60078  0.65172  0.42000  1.0000
  Mn  Mn2       1.0  0.32743  0.15170  0.92006  1.0000
  H   H1        1.0  0.04786  0.56898  0.24426  1.0000
  H   H2        1.0  0.13778  0.06918  0.74442  1.0000
  H   H3        1.0  0.67275  0.42470  0.31463  1.0000
  H   H4        1.0  0.58770  0.92477  0.81469  1.0000
  H   H5        1.0  0.45478  0.44882  0.38321  1.0000
  H   H6        1.0  0.71324  0.94892  0.88316  1.0000
  H   H7        1.0  0.57588  0.12040  0.23795  1.0000
  H   H8        1.0  0.06573  0.62050  0.73820  1.0000
  H   H9        1.0  0.54246  0.98385  0.09915  1.0000
  H   H10       1.0  0.37435  0.48402  0.59935  1.0000
  H   H11       1.0  0.50338  0.65636  0.66396  1.0000
  H   H12       1.0  0.17643  0.15628  0.16397  1.0000
  H   H13       1.0  0.96799  0.31161  0.75389  1.0000
  H   H14       1.0  0.96680  0.81138  0.25378  1.0000
  H   H15       1.0  0.16342  0.32125  0.57484  1.0000
  H   H16       1.0  0.94107  0.82091  0.07472  1.0000
  H   H17       1.0  0.73905  0.27297  0.86702  1.0000
  H   H18       1.0  0.12068  0.77289  0.36712  1.0000
  H   H19       1.0  0.22182  0.68853  0.99574  1.0000
  H   H20       1.0  0.09449  0.18843  0.49564  1.0000
  H   H21       1.0  0.42729  0.69790  0.82169  1.0000
  H   H22       1.0  0.05402  0.19770  0.32153  1.0000
  H   H23       1.0  0.62047  0.93590  0.53645  1.0000
  H   H24       1.0  0.90727  0.43600  0.03670  1.0000
  H   H25       1.0  0.58949  0.17524  0.41114  1.0000
  H   H26       1.0  0.82432  0.67539  0.91144  1.0000
  H   H27       1.0  0.52014  0.79061  0.02245  1.0000
  H   H28       1.0  0.66650  0.29074  0.52265  1.0000
  H   H29       1.0  0.53284  0.58130  0.17640  1.0000
  H   H30       1.0  0.70902  0.08147  0.67664  1.0000
  C   C1        1.0  0.04017  0.49717  0.41648  1.0000
  C   C2        1.0  0.04643  0.99712  0.91643  1.0000
  C   C3        1.0  0.93218  0.48831  0.52620  1.0000
  C   C4        1.0  0.05354  0.98818  0.02614  1.0000
  C   C5        1.0  0.64889  0.57965  0.64866  1.0000
  C   C6        1.0  0.12290  0.07958  0.14865  1.0000
  C   C7        1.0  0.72142  0.48627  0.72619  1.0000
  C   C8        1.0  0.06630  0.98612  0.22617  1.0000
  C   C9        1.0  0.90698  0.38883  0.69772  1.0000
  C   C10       1.0  0.00675  0.88862  0.19764  1.0000
  C   C11       1.0  0.01595  0.39258  0.59793  1.0000
  C   C12       1.0  0.99390  0.89235  0.09784  1.0000
  C   C13       1.0  0.60151  0.48606  0.83136  1.0000
  C   C14       1.0  0.08115  0.98595  0.33134  1.0000
  C   C15       1.0  0.62854  0.36568  0.89501  1.0000
  C   C16       1.0  0.11053  0.86561  0.39509  1.0000
  C   C17       1.0  0.51073  0.36047  0.99290  1.0000
  C   C18       1.0  0.13549  0.86048  0.49301  1.0000
  C   C19       1.0  0.54551  0.22873  0.05729  1.0000
  C   C20       1.0  0.16824  0.72873  0.55739  1.0000
  C   C21       1.0  0.36232  0.47748  0.03009  1.0000
  C   C22       1.0  0.12977  0.97751  0.53019  1.0000
  C   C23       1.0  0.21836  0.46811  0.12923  1.0000
  C   C24       1.0  0.18363  0.96838  0.62936  1.0000
  C   C25       1.0  0.33827  0.59831  0.96773  1.0000
  C   C26       1.0  0.09597  0.09824  0.46768  1.0000
  C   C27       1.0  0.45439  0.60299  0.86937  1.0000
  C   C28       1.0  0.07373  0.10285  0.36929  1.0000
  C   C29       1.0  0.60307  0.95927  0.45865  1.0000
  C   C30       1.0  0.97900  0.45934  0.95889  1.0000
  C   C31       1.0  0.58859  0.07818  0.39743  1.0000
  C   C32       1.0  0.93584  0.57829  0.89771  1.0000
  C   C33       1.0  0.57285  0.92600  0.31228  1.0000
  C   C34       1.0  0.18873  0.42612  0.81250  1.0000
  C   C35       1.0  0.56017  0.85170  0.23733  1.0000
  C   C36       1.0  0.35057  0.35188  0.73753  1.0000
  C   C37       1.0  0.53545  0.78257  0.09989  1.0000
  C   C38       1.0  0.58176  0.28272  0.60008  1.0000
  C   C39       1.0  0.54292  0.68044  0.17720  1.0000
  C   C40       1.0  0.59907  0.18061  0.67741  1.0000
  N   N1        1.0  0.74765  0.57727  0.55103  1.0000
  N   N2        1.0  0.12405  0.07725  0.05104  1.0000
  N   N3        1.0  0.59272  0.86467  0.40509  1.0000
  N   N4        1.0  0.13736  0.36473  0.90529  1.0000
  N   N5        1.0  0.57008  0.05521  0.30531  1.0000
  N   N6        1.0  0.06934  0.55534  0.80557  1.0000
  N   N7        1.0  0.54735  0.88968  0.13908  1.0000
  N   N8        1.0  0.42368  0.38986  0.63929  1.0000
  N   N9        1.0  0.55912  0.72395  0.26259  1.0000
  N   N10       1.0  0.45401  0.22411  0.76278  1.0000
  O   O1        1.0  0.92792  0.56446  0.35415  1.0000
  O   O2        1.0  0.15419  0.06411  0.85411  1.0000
  O   O3        1.0  0.22407  0.44184  0.39186  1.0000
  O   O4        1.0  0.94214  0.94211  0.89174  1.0000
  O   O5        1.0  0.61626  0.21627  0.13333  1.0000
  O   O6        1.0  0.03412  0.71614  0.63348  1.0000
  O   O7        1.0  0.50759  0.13407  0.02623  1.0000
  O   O8        1.0  0.33199  0.63420  0.52629  1.0000
  O   O9        1.0  0.17901  0.36340  0.16521  1.0000
  O   O10       1.0  0.29259  0.86400  0.66522  1.0000
  O   O11       1.0  0.13388  0.58366  0.17235  1.0000
  O   O12       1.0  0.10815  0.08380  0.67270  1.0000
  O   O13       1.0  0.59160  0.44828  0.38181  1.0000
  O   O14       1.0  0.57835  0.94829  0.88185  1.0000
