data_image0
_chemical_formula_structural       Cu2H8C8Br2N4
_chemical_formula_sum              "Cu2 H8 C8 Br2 N4"
_cell_length_a       3.87554
_cell_length_b       6.40588
_cell_length_c       11.7032
_cell_angle_alpha    89.9985
_cell_angle_beta     99.129
_cell_angle_gamma    90.0038

_space_group_name_H-M_alt    "P 1"
_space_group_IT_number       1

loop_
  _space_group_symop_operation_xyz
  'x, y, z'

loop_
  _atom_site_type_symbol
  _atom_site_label
  _atom_site_symmetry_multiplicity
  _atom_site_fract_x
  _atom_site_fract_y
  _atom_site_fract_z
  _atom_site_occupancy
  Cu  Cu1       1.0  0.99996  0.26632  0.25000  1.0000
  Cu  Cu2       1.0  0.00001  0.73367  0.75001  1.0000
  H   H1        1.0  0.76172  0.35094  0.47426  1.0000
  H   H2        1.0  0.23829  0.35097  0.02573  1.0000
  H   H3        1.0  0.23834  0.64905  0.52575  1.0000
  H   H4        1.0  0.76168  0.64905  0.97426  1.0000
  H   H5        1.0  0.24052  0.84267  0.34082  1.0000
  H   H6        1.0  0.75948  0.84268  0.15919  1.0000
  H   H7        1.0  0.75954  0.15728  0.65918  1.0000
  H   H8        1.0  0.24049  0.15733  0.84081  1.0000
  C   C1        1.0  0.87076  0.19410  0.48624  1.0000
  C   C2        1.0  0.12924  0.19413  0.01376  1.0000
  C   C3        1.0  0.12927  0.80589  0.51378  1.0000
  C   C4        1.0  0.87073  0.80589  0.98622  1.0000
  C   C5        1.0  0.13196  0.91490  0.41165  1.0000
  C   C6        1.0  0.86801  0.91492  0.08835  1.0000
  C   C7        1.0  0.86805  0.08508  0.58836  1.0000
  C   C8        1.0  0.13195  0.08511  0.91164  1.0000
  Br  Br1       1.0  0.50003  0.51031  0.25002  1.0000
  Br  Br2       1.0  0.49999  0.48967  0.75000  1.0000
  N   N1        1.0  0.00317  0.11112  0.39614  1.0000
  N   N2        1.0  0.99682  0.11114  0.10385  1.0000
  N   N3        1.0  0.99685  0.88887  0.60385  1.0000
  N   N4        1.0  0.00315  0.88890  0.89615  1.0000
