data_image0
_chemical_formula_structural       Cu8H24C32I8N8
_chemical_formula_sum              "Cu8 H24 C32 I8 N8"
_cell_length_a       4.34269
_cell_length_b       13.4709
_cell_length_c       17.4304
_cell_angle_alpha    90.0001
_cell_angle_beta     90.0002
_cell_angle_gamma    93.6777

_space_group_name_H-M_alt    "P 1"
_space_group_IT_number       1

loop_
  _space_group_symop_operation_xyz
  'x, y, z'

loop_
  _atom_site_type_symbol
  _atom_site_label
  _atom_site_symmetry_multiplicity
  _atom_site_fract_x
  _atom_site_fract_y
  _atom_site_fract_z
  _atom_site_occupancy
  Cu  Cu1       1.0  0.36061  0.18720  0.43597  1.0000
  Cu  Cu2       1.0  0.13938  0.31280  0.93597  1.0000
  Cu  Cu3       1.0  0.63938  0.81280  0.56403  1.0000
  Cu  Cu4       1.0  0.86061  0.68720  0.06403  1.0000
  Cu  Cu5       1.0  0.02706  0.26045  0.32552  1.0000
  Cu  Cu6       1.0  0.47294  0.23955  0.82552  1.0000
  Cu  Cu7       1.0  0.97294  0.73955  0.67448  1.0000
  Cu  Cu8       1.0  0.52706  0.76045  0.17448  1.0000
  H   H1        1.0  0.73610  0.10868  0.70481  1.0000
  H   H2        1.0  0.76390  0.39132  0.20481  1.0000
  H   H3        1.0  0.26391  0.89132  0.29519  1.0000
  H   H4        1.0  0.23609  0.60868  0.79519  1.0000
  H   H5        1.0  0.68072  0.08754  0.56290  1.0000
  H   H6        1.0  0.81928  0.41246  0.06290  1.0000
  H   H7        1.0  0.31929  0.91246  0.43710  1.0000
  H   H8        1.0  0.18071  0.58754  0.93710  1.0000
  H   H9        1.0  0.01834  0.32618  0.48594  1.0000
  H   H10       1.0  0.48166  0.17382  0.98594  1.0000
  H   H11       1.0  0.98166  0.67382  0.51406  1.0000
  H   H12       1.0  0.51834  0.82618  0.01406  1.0000
  H   H13       1.0  0.76153  0.46095  0.55315  1.0000
  H   H14       1.0  0.73847  0.03905  0.05315  1.0000
  H   H15       1.0  0.23847  0.53905  0.44685  1.0000
  H   H16       1.0  0.26153  0.96095  0.94685  1.0000
  H   H17       1.0  0.82981  0.48464  0.69387  1.0000
  H   H18       1.0  0.67019  0.01536  0.19387  1.0000
  H   H19       1.0  0.17019  0.51536  0.30613  1.0000
  H   H20       1.0  0.32981  0.98464  0.80613  1.0000
  H   H21       1.0  0.15814  0.37390  0.76791  1.0000
  H   H22       1.0  0.34186  0.12610  0.26791  1.0000
  H   H23       1.0  0.84188  0.62610  0.23209  1.0000
  H   H24       1.0  0.65813  0.87390  0.73209  1.0000
  C   C1        1.0  0.59225  0.15721  0.67223  1.0000
  C   C2        1.0  0.90775  0.34279  0.17223  1.0000
  C   C3        1.0  0.40775  0.84279  0.32777  1.0000
  C   C4        1.0  0.09224  0.65721  0.82777  1.0000
  C   C5        1.0  0.55894  0.14478  0.59243  1.0000
  C   C6        1.0  0.94106  0.35522  0.09243  1.0000
  C   C7        1.0  0.44106  0.85522  0.40757  1.0000
  C   C8        1.0  0.05893  0.64477  0.90757  1.0000
  C   C9        1.0  0.24190  0.27557  0.58788  1.0000
  C   C10       1.0  0.25810  0.22443  0.08788  1.0000
  C   C11       1.0  0.75811  0.72444  0.41212  1.0000
  C   C12       1.0  0.74189  0.77557  0.91212  1.0000
  C   C13       1.0  0.05257  0.33871  0.54723  1.0000
  C   C14       1.0  0.44743  0.16129  0.04723  1.0000
  C   C15       1.0  0.94743  0.66129  0.45277  1.0000
  C   C16       1.0  0.55257  0.83871  0.95277  1.0000
  C   C17       1.0  0.90915  0.41300  0.58493  1.0000
  C   C18       1.0  0.59084  0.08700  0.08493  1.0000
  C   C19       1.0  0.09085  0.58700  0.41507  1.0000
  C   C20       1.0  0.40915  0.91300  0.91506  1.0000
  C   C21       1.0  0.94839  0.42652  0.66477  1.0000
  C   C22       1.0  0.55161  0.07348  0.16477  1.0000
  C   C23       1.0  0.05162  0.57348  0.33523  1.0000
  C   C24       1.0  0.44839  0.92652  0.83523  1.0000
  C   C25       1.0  0.12955  0.36545  0.70604  1.0000
  C   C26       1.0  0.37045  0.13455  0.20604  1.0000
  C   C27       1.0  0.87047  0.63456  0.29396  1.0000
  C   C28       1.0  0.62954  0.86545  0.79396  1.0000
  C   C29       1.0  0.27957  0.28908  0.66889  1.0000
  C   C30       1.0  0.22044  0.21091  0.16889  1.0000
  C   C31       1.0  0.72044  0.71092  0.33111  1.0000
  C   C32       1.0  0.77956  0.78908  0.83111  1.0000
  I   I1        1.0  0.54174  0.35881  0.36941  1.0000
  I   I2        1.0  0.95826  0.14119  0.86941  1.0000
  I   I3        1.0  0.45826  0.64119  0.63059  1.0000
  I   I4        1.0  0.04174  0.85881  0.13059  1.0000
  I   I5        1.0  0.86154  0.08528  0.39087  1.0000
  I   I6        1.0  0.63846  0.41472  0.89087  1.0000
  I   I7        1.0  0.13846  0.91472  0.60913  1.0000
  I   I8        1.0  0.36154  0.58529  0.10913  1.0000
  N   N1        1.0  0.45810  0.22807  0.71082  1.0000
  N   N2        1.0  0.04190  0.27193  0.21082  1.0000
  N   N3        1.0  0.54191  0.77194  0.28918  1.0000
  N   N4        1.0  0.95810  0.72807  0.78918  1.0000
  N   N5        1.0  0.38796  0.20229  0.54988  1.0000
  N   N6        1.0  0.11203  0.29771  0.04988  1.0000
  N   N7        1.0  0.61203  0.79771  0.45012  1.0000
  N   N8        1.0  0.88796  0.70229  0.95012  1.0000
