data_image0
_chemical_formula_structural       Cu2P2H38C46Br2N2O6
_chemical_formula_sum              "Cu2 P2 H38 C46 Br2 N2 O6"
_cell_length_a       9.43891
_cell_length_b       9.45006
_cell_length_c       13.0809
_cell_angle_alpha    74.4186
_cell_angle_beta     70.4942
_cell_angle_gamma    83.7021

_space_group_name_H-M_alt    "P 1"
_space_group_IT_number       1

loop_
  _space_group_symop_operation_xyz
  'x, y, z'

loop_
  _atom_site_type_symbol
  _atom_site_label
  _atom_site_symmetry_multiplicity
  _atom_site_fract_x
  _atom_site_fract_y
  _atom_site_fract_z
  _atom_site_occupancy
  Cu  Cu1       1.0  0.45239  0.57747  0.40479  1.0000
  Cu  Cu2       1.0  0.54761  0.42253  0.59521  1.0000
  P   P1        1.0  0.55420  0.57958  0.23021  1.0000
  P   P2        1.0  0.44580  0.42042  0.76979  1.0000
  H   H1        1.0  0.11705  0.57490  0.50490  1.0000
  H   H2        1.0  0.88295  0.42510  0.49510  1.0000
  H   H3        1.0  0.91057  0.75624  0.54307  1.0000
  H   H4        1.0  0.08943  0.24376  0.45693  1.0000
  H   H5        1.0  0.25101  0.08842  0.43003  1.0000
  H   H6        1.0  0.74899  0.91157  0.56997  1.0000
  H   H7        1.0  0.44068  0.89187  0.39451  1.0000
  H   H8        1.0  0.55932  0.10812  0.60549  1.0000
  H   H9        1.0  0.65199  0.27967  0.36775  1.0000
  H   H10       1.0  0.34802  0.72034  0.63224  1.0000
  H   H11       1.0  0.66420  0.00833  0.38380  1.0000
  H   H12       1.0  0.33580  0.99168  0.61620  1.0000
  H   H13       1.0  0.71829  0.91571  0.21414  1.0000
  H   H14       1.0  0.28171  0.08430  0.78586  1.0000
  H   H15       1.0  0.76565  0.09253  0.02672  1.0000
  H   H16       1.0  0.23435  0.90747  0.97328  1.0000
  H   H17       1.0  0.75219  0.36349  0.01158  1.0000
  H   H18       1.0  0.24781  0.63651  0.98841  1.0000
  H   H19       1.0  0.26361  0.35037  0.18025  1.0000
  H   H20       1.0  0.73638  0.64963  0.81976  1.0000
  H   H21       1.0  0.98589  0.38929  0.22314  1.0000
  H   H22       1.0  0.01410  0.61071  0.77686  1.0000
  H   H23       1.0  0.86676  0.62761  0.26041  1.0000
  H   H24       1.0  0.13325  0.37239  0.73960  1.0000
  H   H25       1.0  0.02664  0.82802  0.24736  1.0000
  H   H26       1.0  0.97336  0.17198  0.75264  1.0000
  H   H27       1.0  0.30319  0.78983  0.20277  1.0000
  H   H28       1.0  0.69682  0.21016  0.79723  1.0000
  H   H29       1.0  0.90923  0.73677  0.05155  1.0000
  H   H30       1.0  0.09077  0.26322  0.94844  1.0000
  H   H31       1.0  0.02651  0.84306  0.84671  1.0000
  H   H32       1.0  0.97349  0.15692  0.15329  1.0000
  H   H33       1.0  0.86655  0.95201  0.72752  1.0000
  H   H34       1.0  0.13345  0.04799  0.27248  1.0000
  H   H35       1.0  0.58578  0.95170  0.81206  1.0000
  H   H36       1.0  0.41422  0.04831  0.18795  1.0000
  H   H37       1.0  0.47045  0.84626  0.01608  1.0000
  H   H38       1.0  0.52955  0.15374  0.98393  1.0000
  C   C1        1.0  0.14072  0.69073  0.48870  1.0000
  C   C2        1.0  0.85928  0.30926  0.51130  1.0000
  C   C3        1.0  0.02564  0.79433  0.51056  1.0000
  C   C4        1.0  0.97436  0.20567  0.48944  1.0000
  C   C5        1.0  0.05941  0.94275  0.48996  1.0000
  C   C6        1.0  0.94059  0.05724  0.51004  1.0000
  C   C7        1.0  0.21307  0.97699  0.44785  1.0000
  C   C8        1.0  0.78693  0.02300  0.55215  1.0000
  C   C9        1.0  0.32123  0.86748  0.42740  1.0000
  C   C10       1.0  0.67877  0.13252  0.57260  1.0000
  C   C11       1.0  0.70230  0.33393  0.18879  1.0000
  C   C12       1.0  0.29771  0.66608  0.81120  1.0000
  C   C13       1.0  0.67745  0.23678  0.29403  1.0000
  C   C14       1.0  0.32256  0.76323  0.70596  1.0000
  C   C15       1.0  0.68316  0.08595  0.30222  1.0000
  C   C16       1.0  0.31684  0.91406  0.69778  1.0000
  C   C17       1.0  0.71415  0.03352  0.20661  1.0000
  C   C18       1.0  0.28584  0.96649  0.79339  1.0000
  C   C19       1.0  0.73923  0.13286  0.10182  1.0000
  C   C20       1.0  0.26076  0.86715  0.89818  1.0000
  C   C21       1.0  0.73299  0.28404  0.09227  1.0000
  C   C22       1.0  0.26701  0.71596  0.90772  1.0000
  C   C23       1.0  0.29732  0.56645  0.19091  1.0000
  C   C24       1.0  0.70268  0.43355  0.80910  1.0000
  C   C25       1.0  0.20947  0.45368  0.19616  1.0000
  C   C26       1.0  0.79053  0.54632  0.80385  1.0000
  C   C27       1.0  0.05457  0.47679  0.22001  1.0000
  C   C28       1.0  0.94543  0.52320  0.77999  1.0000
  C   C29       1.0  0.98800  0.61084  0.23934  1.0000
  C   C30       1.0  0.01200  0.38916  0.76066  1.0000
  C   C31       1.0  0.07760  0.72279  0.23327  1.0000
  C   C32       1.0  0.92241  0.27720  0.76673  1.0000
  C   C33       1.0  0.23321  0.70181  0.20853  1.0000
  C   C34       1.0  0.76680  0.29818  0.79147  1.0000
  C   C35       1.0  0.68408  0.78793  0.04376  1.0000
  C   C36       1.0  0.31591  0.21207  0.95624  1.0000
  C   C37       1.0  0.84025  0.78459  0.99808  1.0000
  C   C38       1.0  0.15975  0.21541  0.00192  1.0000
  C   C39       1.0  0.90478  0.84410  0.88353  1.0000
  C   C40       1.0  0.09522  0.15590  0.11647  1.0000
  C   C41       1.0  0.81438  0.90521  0.81656  1.0000
  C   C42       1.0  0.18563  0.09480  0.18344  1.0000
  C   C43       1.0  0.65799  0.90549  0.86342  1.0000
  C   C44       1.0  0.34201  0.09452  0.13658  1.0000
  C   C45       1.0  0.59197  0.84588  0.97789  1.0000
  C   C46       1.0  0.40803  0.15413  0.02211  1.0000
  Br  Br1       1.0  0.35096  0.33775  0.52836  1.0000
  Br  Br2       1.0  0.64904  0.66224  0.47164  1.0000
  N   N1        1.0  0.28721  0.72535  0.44734  1.0000
  N   N2        1.0  0.71278  0.27464  0.55266  1.0000
  O   O1        1.0  0.70401  0.48539  0.17680  1.0000
  O   O2        1.0  0.29599  0.51462  0.82319  1.0000
  O   O3        1.0  0.45205  0.53976  0.16221  1.0000
  O   O4        1.0  0.54796  0.46024  0.83779  1.0000
  O   O5        1.0  0.61768  0.74220  0.16047  1.0000
  O   O6        1.0  0.38232  0.25780  0.83953  1.0000
