data_image0
_chemical_formula_structural       Cu2P2H34C40Br2N2O6
_chemical_formula_sum              "Cu2 P2 H34 C40 Br2 N2 O6"
_cell_length_a       8.34934
_cell_length_b       9.90242
_cell_length_c       13.6969
_cell_angle_alpha    95.8431
_cell_angle_beta     103.782
_cell_angle_gamma    111.414

_space_group_name_H-M_alt    "P 1"
_space_group_IT_number       1

loop_
  _space_group_symop_operation_xyz
  'x, y, z'

loop_
  _atom_site_type_symbol
  _atom_site_label
  _atom_site_symmetry_multiplicity
  _atom_site_fract_x
  _atom_site_fract_y
  _atom_site_fract_z
  _atom_site_occupancy
  Cu  Cu1       1.0  0.15720  0.53443  0.57848  1.0000
  Cu  Cu2       1.0  0.84278  0.46555  0.42152  1.0000
  P   P1        1.0  0.22688  0.61872  0.74034  1.0000
  P   P2        1.0  0.77310  0.38128  0.25965  1.0000
  H   H1        1.0  0.37198  0.67252  0.44070  1.0000
  H   H2        1.0  0.62804  0.32748  0.55931  1.0000
  H   H3        1.0  0.63701  0.65368  0.39005  1.0000
  H   H4        1.0  0.36300  0.34632  0.60996  1.0000
  H   H5        1.0  0.92131  0.54852  0.88547  1.0000
  H   H6        1.0  0.07870  0.45149  0.11452  1.0000
  H   H7        1.0  0.91997  0.64721  0.06116  1.0000
  H   H8        1.0  0.08003  0.35278  0.93884  1.0000
  H   H9        1.0  0.11837  0.91021  0.14796  1.0000
  H   H10       1.0  0.88163  0.08979  0.85204  1.0000
  H   H11       1.0  0.32311  0.07069  0.06114  1.0000
  H   H12       1.0  0.67688  0.92931  0.93885  1.0000
  H   H13       1.0  0.32450  0.97012  0.88764  1.0000
  H   H14       1.0  0.67550  0.02989  0.11236  1.0000
  H   H15       1.0  0.55381  0.56794  0.92311  1.0000
  H   H16       1.0  0.44619  0.43207  0.07690  1.0000
  H   H17       1.0  0.69868  0.38557  0.92171  1.0000
  H   H18       1.0  0.30132  0.61443  0.07829  1.0000
  H   H19       1.0  0.53041  0.13584  0.81087  1.0000
  H   H20       1.0  0.46959  0.86416  0.18913  1.0000
  H   H21       1.0  0.20841  0.05863  0.70632  1.0000
  H   H22       1.0  0.79158  0.94137  0.29368  1.0000
  H   H23       1.0  0.06267  0.23818  0.71245  1.0000
  H   H24       1.0  0.93733  0.76183  0.28755  1.0000
  H   H25       1.0  0.39655  0.92669  0.67593  1.0000
  H   H26       1.0  0.60346  0.07330  0.32407  1.0000
  H   H27       1.0  0.60896  0.05082  0.57930  1.0000
  H   H28       1.0  0.39104  0.94918  0.42070  1.0000
  H   H29       1.0  0.86869  0.98603  0.57901  1.0000
  H   H30       1.0  0.13132  0.01397  0.42099  1.0000
  H   H31       1.0  0.92273  0.80115  0.67901  1.0000
  H   H32       1.0  0.07728  0.19885  0.32099  1.0000
  H   H33       1.0  0.71821  0.68650  0.78158  1.0000
  H   H34       1.0  0.28179  0.31350  0.21843  1.0000
  C   C1        1.0  0.56982  0.40450  0.53315  1.0000
  C   C2        1.0  0.43019  0.59550  0.46685  1.0000
  C   C3        1.0  0.42470  0.41513  0.56070  1.0000
  C   C4        1.0  0.57530  0.58486  0.43930  1.0000
  C   C5        1.0  0.12170  0.75479  0.87828  1.0000
  C   C6        1.0  0.87830  0.24522  0.12171  1.0000
  C   C7        1.0  0.00798  0.66236  0.92562  1.0000
  C   C8        1.0  0.99202  0.33764  0.07438  1.0000
  C   C9        1.0  0.00806  0.71873  0.02335  1.0000
  C   C10       1.0  0.99194  0.28127  0.97665  1.0000
  C   C11       1.0  0.12033  0.86581  0.07234  1.0000
  C   C12       1.0  0.87967  0.13419  0.92765  1.0000
  C   C13       1.0  0.23458  0.95605  0.02377  1.0000
  C   C14       1.0  0.76542  0.04395  0.97623  1.0000
  C   C15       1.0  0.23658  0.90070  0.92634  1.0000
  C   C16       1.0  0.76342  0.09930  0.07366  1.0000
  C   C17       1.0  0.30152  0.41108  0.81815  1.0000
  C   C18       1.0  0.69849  0.58893  0.18185  1.0000
  C   C19       1.0  0.48079  0.45609  0.87635  1.0000
  C   C20       1.0  0.51921  0.54391  0.12365  1.0000
  C   C21       1.0  0.56090  0.35469  0.87410  1.0000
  C   C22       1.0  0.43910  0.64531  0.12590  1.0000
  C   C23       1.0  0.46455  0.21253  0.81240  1.0000
  C   C24       1.0  0.53545  0.78747  0.18760  1.0000
  C   C25       1.0  0.28535  0.16975  0.75421  1.0000
  C   C26       1.0  0.71464  0.83025  0.24579  1.0000
  C   C27       1.0  0.20199  0.26874  0.75741  1.0000
  C   C28       1.0  0.79801  0.73126  0.24259  1.0000
  C   C29       1.0  0.54823  0.80186  0.73466  1.0000
  C   C30       1.0  0.45177  0.19814  0.26533  1.0000
  C   C31       1.0  0.51450  0.90283  0.67785  1.0000
  C   C32       1.0  0.48550  0.09717  0.32215  1.0000
  C   C33       1.0  0.63204  0.97003  0.62283  1.0000
  C   C34       1.0  0.36796  0.02997  0.37717  1.0000
  C   C35       1.0  0.77900  0.93406  0.62314  1.0000
  C   C36       1.0  0.22100  0.06594  0.37687  1.0000
  C   C37       1.0  0.81006  0.83155  0.67964  1.0000
  C   C38       1.0  0.18995  0.16845  0.32037  1.0000
  C   C39       1.0  0.69528  0.76569  0.73636  1.0000
  C   C40       1.0  0.30472  0.23431  0.26364  1.0000
  Br  Br1       1.0  0.91772  0.27994  0.51338  1.0000
  Br  Br2       1.0  0.08227  0.72004  0.48661  1.0000
  N   N1        1.0  0.64583  0.48911  0.47212  1.0000
  N   N2        1.0  0.35418  0.51089  0.52788  1.0000
  O   O1        1.0  0.10993  0.70166  0.77647  1.0000
  O   O2        1.0  0.89008  0.29834  0.22353  1.0000
  O   O3        1.0  0.21649  0.50931  0.82329  1.0000
  O   O4        1.0  0.78350  0.49069  0.17671  1.0000
  O   O5        1.0  0.43808  0.73763  0.79461  1.0000
  O   O6        1.0  0.56192  0.26237  0.20539  1.0000
