data_image0
_chemical_formula_structural       Cd2H14C18S4N6O2
_chemical_formula_sum              "Cd2 H14 C18 S4 N6 O2"
_cell_length_a       7.94831
_cell_length_b       7.7211
_cell_length_c       9.68138
_cell_angle_alpha    90.0001
_cell_angle_beta     89.9997
_cell_angle_gamma    107.148

_space_group_name_H-M_alt    "P 1"
_space_group_IT_number       1

loop_
  _space_group_symop_operation_xyz
  'x, y, z'

loop_
  _atom_site_type_symbol
  _atom_site_label
  _atom_site_symmetry_multiplicity
  _atom_site_fract_x
  _atom_site_fract_y
  _atom_site_fract_z
  _atom_site_occupancy
  Cd  Cd1       1.0  0.92856  0.27133  0.24841  1.0000
  Cd  Cd2       1.0  0.42856  0.27133  0.75160  1.0000
  H   H1        1.0  0.05918  0.51812  0.50793  1.0000
  H   H2        1.0  0.55918  0.51812  0.49206  1.0000
  H   H3        1.0  0.29959  0.78939  0.59400  1.0000
  H   H4        1.0  0.79960  0.78938  0.40600  1.0000
  H   H5        1.0  0.53598  0.95059  0.42738  1.0000
  H   H6        1.0  0.03598  0.95059  0.57263  1.0000
  H   H7        1.0  0.27339  0.56536  0.11591  1.0000
  H   H8        1.0  0.77338  0.56533  0.88408  1.0000
  H   H9        1.0  0.66308  0.90687  0.95591  1.0000
  H   H10       1.0  0.16307  0.90685  0.04409  1.0000
  H   H11       1.0  0.43265  0.87632  0.97205  1.0000
  H   H12       1.0  0.93265  0.87631  0.02795  1.0000
  H   H13       1.0  0.51122  0.68578  0.98527  1.0000
  H   H14       1.0  0.01121  0.68576  0.01472  1.0000
  C   C1        1.0  0.25861  0.17407  0.42703  1.0000
  C   C2        1.0  0.75862  0.17407  0.57297  1.0000
  C   C3        1.0  0.07473  0.34963  0.92457  1.0000
  C   C4        1.0  0.57474  0.34964  0.07543  1.0000
  C   C5        1.0  0.16447  0.59512  0.44021  1.0000
  C   C6        1.0  0.66447  0.59511  0.55978  1.0000
  C   C7        1.0  0.29878  0.74346  0.48753  1.0000
  C   C8        1.0  0.79879  0.74345  0.51247  1.0000
  C   C9        1.0  0.42969  0.83259  0.39574  1.0000
  C   C10       1.0  0.92970  0.83259  0.60426  1.0000
  C   C11       1.0  0.42424  0.77039  0.25919  1.0000
  C   C12       1.0  0.92423  0.77038  0.74081  1.0000
  C   C13       1.0  0.28382  0.62127  0.22016  1.0000
  C   C14       1.0  0.78382  0.62124  0.77983  1.0000
  C   C15       1.0  0.56742  0.86351  0.16205  1.0000
  C   C16       1.0  0.06741  0.86350  0.83795  1.0000
  C   C17       1.0  0.54319  0.83089  0.00996  1.0000
  C   C18       1.0  0.04319  0.83088  0.99004  1.0000
  S   S1        1.0  0.15877  0.07907  0.28756  1.0000
  S   S2        1.0  0.65878  0.07907  0.71246  1.0000
  S   S3        1.0  0.18670  0.45374  0.79231  1.0000
  S   S4        1.0  0.68672  0.45375  0.20770  1.0000
  N   N1        1.0  0.33398  0.24029  0.52826  1.0000
  N   N2        1.0  0.83399  0.24030  0.47175  1.0000
  N   N3        1.0  0.98926  0.27642  0.01968  1.0000
  N   N4        1.0  0.48928  0.27644  0.98031  1.0000
  N   N5        1.0  0.15638  0.53641  0.30875  1.0000
  N   N6        1.0  0.65638  0.53639  0.69124  1.0000
  O   O1        1.0  0.70457  0.96811  0.20993  1.0000
  O   O2        1.0  0.20456  0.96811  0.79007  1.0000
