data_image0
_chemical_formula_structural       Sm2H22C32N4O28
_chemical_formula_sum              "Sm2 H22 C32 N4 O28"
_cell_length_a       9.16569
_cell_length_b       10.1276
_cell_length_c       12.8403
_cell_angle_alpha    69.8463
_cell_angle_beta     67.5718
_cell_angle_gamma    68.4146

_space_group_name_H-M_alt    "P 1"
_space_group_IT_number       1

loop_
  _space_group_symop_operation_xyz
  'x, y, z'

loop_
  _atom_site_type_symbol
  _atom_site_label
  _atom_site_symmetry_multiplicity
  _atom_site_fract_x
  _atom_site_fract_y
  _atom_site_fract_z
  _atom_site_occupancy
  Sm  Sm1       1.0  0.69979  0.52938  0.53352  1.0000
  Sm  Sm2       1.0  0.30022  0.47062  0.46649  1.0000
  H   H1        1.0  0.38271  0.78393  0.75988  1.0000
  H   H2        1.0  0.61729  0.21605  0.24012  1.0000
  H   H3        1.0  0.61551  0.91464  0.17648  1.0000
  H   H4        1.0  0.38448  0.08538  0.82353  1.0000
  H   H5        1.0  0.98803  0.97957  0.84885  1.0000
  H   H6        1.0  0.01195  0.02043  0.15115  1.0000
  H   H7        1.0  0.08517  0.59074  0.11639  1.0000
  H   H8        1.0  0.91482  0.40927  0.88361  1.0000
  H   H9        1.0  0.79100  0.13819  0.64133  1.0000
  H   H10       1.0  0.20901  0.86181  0.35867  1.0000
  H   H11       1.0  0.04027  0.67613  0.69242  1.0000
  H   H12       1.0  0.95974  0.32387  0.30757  1.0000
  H   H13       1.0  0.31785  0.99504  0.55190  1.0000
  H   H14       1.0  0.68216  0.00496  0.44809  1.0000
  H   H15       1.0  0.72346  0.59337  0.74007  1.0000
  H   H16       1.0  0.27654  0.40663  0.25993  1.0000
  H   H17       1.0  0.89107  0.48073  0.69638  1.0000
  H   H18       1.0  0.10893  0.51927  0.30362  1.0000
  H   H19       1.0  0.60804  0.31079  0.76867  1.0000
  H   H20       1.0  0.39196  0.68920  0.23133  1.0000
  H   H21       1.0  0.49590  0.31703  0.69365  1.0000
  H   H22       1.0  0.50411  0.68296  0.30635  1.0000
  C   C1        1.0  0.79557  0.66142  0.28374  1.0000
  C   C2        1.0  0.20443  0.33858  0.71626  1.0000
  C   C3        1.0  0.84611  0.74430  0.16079  1.0000
  C   C4        1.0  0.15388  0.25571  0.83922  1.0000
  C   C5        1.0  0.73724  0.87441  0.12032  1.0000
  C   C6        1.0  0.26275  0.12560  0.87969  1.0000
  C   C7        1.0  0.79034  0.95449  0.00750  1.0000
  C   C8        1.0  0.20965  0.04553  0.99250  1.0000
  C   C9        1.0  0.94861  0.91133  0.93487  1.0000
  C   C10       1.0  0.05138  0.08868  0.06513  1.0000
  C   C11       1.0  0.05359  0.77803  0.97468  1.0000
  C   C12       1.0  0.94641  0.22198  0.02532  1.0000
  C   C13       1.0  0.00174  0.69431  0.08693  1.0000
  C   C14       1.0  0.99826  0.30571  0.91308  1.0000
  C   C15       1.0  0.21917  0.71884  0.89720  1.0000
  C   C16       1.0  0.78081  0.28114  0.10280  1.0000
  C   C17       1.0  0.06433  0.23816  0.54574  1.0000
  C   C18       1.0  0.93568  0.76184  0.45426  1.0000
  C   C19       1.0  0.05588  0.08220  0.59148  1.0000
  C   C20       1.0  0.94413  0.91780  0.40851  1.0000
  C   C21       1.0  0.90458  0.05043  0.63607  1.0000
  C   C22       1.0  0.09543  0.94957  0.36393  1.0000
  C   C23       1.0  0.90310  0.90430  0.67464  1.0000
  C   C24       1.0  0.09691  0.09570  0.32535  1.0000
  C   C25       1.0  0.04607  0.78889  0.66574  1.0000
  C   C26       1.0  0.95394  0.21111  0.33426  1.0000
  C   C27       1.0  0.19613  0.82289  0.61979  1.0000
  C   C28       1.0  0.80388  0.17711  0.38020  1.0000
  C   C29       1.0  0.20085  0.96856  0.58602  1.0000
  C   C30       1.0  0.79916  0.03144  0.41397  1.0000
  C   C31       1.0  0.35558  0.70703  0.60292  1.0000
  C   C32       1.0  0.64443  0.29297  0.39708  1.0000
  N   N1        1.0  0.67585  0.09007  0.96398  1.0000
  N   N2        1.0  0.32413  0.90994  0.03603  1.0000
  N   N3        1.0  0.74440  0.87072  0.72097  1.0000
  N   N4        1.0  0.25562  0.12928  0.27904  1.0000
  O   O1        1.0  0.64698  0.69946  0.34539  1.0000
  O   O2        1.0  0.35302  0.30054  0.65462  1.0000
  O   O3        1.0  0.90086  0.55571  0.32758  1.0000
  O   O4        1.0  0.09914  0.44429  0.67242  1.0000
  O   O5        1.0  0.28074  0.58816  0.90161  1.0000
  O   O6        1.0  0.71921  0.41184  0.09838  1.0000
  O   O7        1.0  0.28815  0.82550  0.82225  1.0000
  O   O8        1.0  0.71184  0.17448  0.17776  1.0000
  O   O9        1.0  0.73364  0.16929  0.86844  1.0000
  O   O10       1.0  0.26634  0.83072  0.13156  1.0000
  O   O11       1.0  0.53044  0.11862  0.02184  1.0000
  O   O12       1.0  0.46955  0.88139  0.97816  1.0000
  O   O13       1.0  0.93144  0.33764  0.54178  1.0000
  O   O14       1.0  0.06857  0.66236  0.45821  1.0000
  O   O15       1.0  0.20418  0.25986  0.51244  1.0000
  O   O16       1.0  0.79582  0.74014  0.48755  1.0000
  O   O17       1.0  0.47026  0.71564  0.63126  1.0000
  O   O18       1.0  0.52975  0.28436  0.36873  1.0000
  O   O19       1.0  0.37801  0.60557  0.55638  1.0000
  O   O20       1.0  0.62200  0.39442  0.44362  1.0000
  O   O21       1.0  0.74033  0.74525  0.78155  1.0000
  O   O22       1.0  0.25968  0.25475  0.21846  1.0000
  O   O23       1.0  0.62423  0.96800  0.69655  1.0000
  O   O24       1.0  0.37579  0.03200  0.30346  1.0000
  O   O25       1.0  0.77147  0.50863  0.70566  1.0000
  O   O26       1.0  0.22854  0.49137  0.29434  1.0000
  O   O27       1.0  0.58507  0.35092  0.69351  1.0000
  O   O28       1.0  0.41493  0.64908  0.30649  1.0000
