data_image0
_chemical_formula_structural       Dy2H22C32N4O28
_chemical_formula_sum              "Dy2 H22 C32 N4 O28"
_cell_length_a       9.10891
_cell_length_b       10.0284
_cell_length_c       13.2238
_cell_angle_alpha    114.033
_cell_angle_beta     96.3065
_cell_angle_gamma    111.483

_space_group_name_H-M_alt    "P 1"
_space_group_IT_number       1

loop_
  _space_group_symop_operation_xyz
  'x, y, z'

loop_
  _atom_site_type_symbol
  _atom_site_label
  _atom_site_symmetry_multiplicity
  _atom_site_fract_x
  _atom_site_fract_y
  _atom_site_fract_z
  _atom_site_occupancy
  Dy  Dy1       1.0  0.79946  0.56207  0.53250  1.0000
  Dy  Dy2       1.0  0.20054  0.43793  0.46750  1.0000
  H   H1        1.0  0.11379  0.03821  0.75203  1.0000
  H   H2        1.0  0.88623  0.96180  0.24797  1.0000
  H   H3        1.0  0.89865  0.57926  0.76380  1.0000
  H   H4        1.0  0.10134  0.42073  0.23619  1.0000
  H   H5        1.0  0.00833  0.50759  0.68831  1.0000
  H   H6        1.0  0.99166  0.49240  0.31169  1.0000
  H   H7        1.0  0.61569  0.67210  0.69402  1.0000
  H   H8        1.0  0.38431  0.32790  0.30598  1.0000
  H   H9        1.0  0.78667  0.82775  0.73939  1.0000
  H   H10       1.0  0.21333  0.17225  0.26061  1.0000
  H   H11       1.0  0.88420  0.59429  0.17724  1.0000
  H   H12       1.0  0.11580  0.40571  0.82277  1.0000
  H   H13       1.0  0.51125  0.32351  0.84357  1.0000
  H   H14       1.0  0.48876  0.67651  0.15643  1.0000
  H   H15       1.0  0.40871  0.21238  0.11786  1.0000
  H   H16       1.0  0.59129  0.78763  0.88215  1.0000
  H   H17       1.0  0.28428  0.72061  0.35841  1.0000
  H   H18       1.0  0.71572  0.27939  0.64158  1.0000
  H   H19       1.0  0.53485  0.13597  0.30717  1.0000
  H   H20       1.0  0.46515  0.86402  0.69282  1.0000
  H   H21       1.0  0.81620  0.95405  0.45076  1.0000
  H   H22       1.0  0.18380  0.04595  0.54924  1.0000
  C   C1        1.0  0.65099  0.40917  0.16185  1.0000
  C   C2        1.0  0.34901  0.59083  0.83816  1.0000
  C   C3        1.0  0.76164  0.49701  0.12035  1.0000
  C   C4        1.0  0.23836  0.50300  0.87965  1.0000
  C   C5        1.0  0.70915  0.46131  0.00549  1.0000
  C   C6        1.0  0.29085  0.53869  0.99452  1.0000
  C   C7        1.0  0.54982  0.34410  0.93157  1.0000
  C   C8        1.0  0.45019  0.65591  0.06843  1.0000
  C   C9        1.0  0.44255  0.25311  0.97284  1.0000
  C   C10       1.0  0.55745  0.74690  0.02716  1.0000
  C   C11       1.0  0.49375  0.28482  0.08734  1.0000
  C   C12       1.0  0.50625  0.71519  0.91267  1.0000
  C   C13       1.0  0.70123  0.45086  0.28627  1.0000
  C   C14       1.0  0.29877  0.54914  0.71373  1.0000
  C   C15       1.0  0.27510  0.11593  0.89510  1.0000
  C   C16       1.0  0.72491  0.88409  0.10490  1.0000
  C   C17       1.0  0.55163  0.82602  0.40915  1.0000
  C   C18       1.0  0.44837  0.17398  0.59085  1.0000
  C   C19       1.0  0.39872  0.81380  0.36348  1.0000
  C   C20       1.0  0.60128  0.18619  0.63652  1.0000
  C   C21       1.0  0.39667  0.92279  0.32421  1.0000
  C   C22       1.0  0.60333  0.07721  0.67579  1.0000
  C   C23       1.0  0.54091  0.04807  0.33363  1.0000
  C   C24       1.0  0.45909  0.95192  0.66637  1.0000
  C   C25       1.0  0.69274  0.06021  0.38133  1.0000
  C   C26       1.0  0.30726  0.93979  0.61867  1.0000
  C   C27       1.0  0.69787  0.94652  0.41546  1.0000
  C   C28       1.0  0.30213  0.05348  0.58454  1.0000
  C   C29       1.0  0.55990  0.71361  0.45529  1.0000
  C   C30       1.0  0.44010  0.28639  0.54471  1.0000
  C   C31       1.0  0.85298  0.19651  0.40087  1.0000
  C   C32       1.0  0.14701  0.80349  0.59913  1.0000
  N   N1        1.0  0.23655  0.91211  0.27820  1.0000
  N   N2        1.0  0.76345  0.08789  0.72180  1.0000
  N   N3        1.0  0.82573  0.55181  0.96118  1.0000
  N   N4        1.0  0.17428  0.44820  0.03883  1.0000
  O   O1        1.0  0.85095  0.55176  0.34969  1.0000
  O   O2        1.0  0.14905  0.44824  0.65031  1.0000
  O   O3        1.0  0.59510  0.38839  0.32975  1.0000
  O   O4        1.0  0.40490  0.61160  0.67025  1.0000
  O   O5        1.0  0.20913  0.99362  0.90530  1.0000
  O   O6        1.0  0.79085  0.00638  0.09471  1.0000
  O   O7        1.0  0.20967  0.14280  0.81324  1.0000
  O   O8        1.0  0.79034  0.85720  0.18675  1.0000
  O   O9        1.0  0.76959  0.53049  0.86220  1.0000
  O   O10       1.0  0.23042  0.46951  0.13781  1.0000
  O   O11       1.0  0.97147  0.64211  0.02212  1.0000
  O   O12       1.0  0.02853  0.35790  0.97789  1.0000
  O   O13       1.0  0.70079  0.72409  0.48944  1.0000
  O   O14       1.0  0.29921  0.27590  0.51056  1.0000
  O   O15       1.0  0.42566  0.61740  0.45852  1.0000
  O   O16       1.0  0.57434  0.38260  0.54149  1.0000
  O   O17       1.0  0.97153  0.16378  0.37641  1.0000
  O   O18       1.0  0.02847  0.83622  0.62359  1.0000
  O   O19       1.0  0.87195  0.34301  0.44564  1.0000
  O   O20       1.0  0.12804  0.65698  0.55436  1.0000
  O   O21       1.0  0.23103  0.97858  0.21716  1.0000
  O   O22       1.0  0.76898  0.02142  0.78284  1.0000
  O   O23       1.0  0.11658  0.83967  0.30376  1.0000
  O   O24       1.0  0.88341  0.16032  0.69623  1.0000
  O   O25       1.0  0.92192  0.54611  0.68911  1.0000
  O   O26       1.0  0.07807  0.45387  0.31088  1.0000
  O   O27       1.0  0.73588  0.70806  0.70307  1.0000
  O   O28       1.0  0.26413  0.29194  0.29693  1.0000
