data_image0
_chemical_formula_structural       Gd2H22C32N4O28
_chemical_formula_sum              "Gd2 H22 C32 N4 O28"
_cell_length_a       9.12513
_cell_length_b       10.0525
_cell_length_c       12.8232
_cell_angle_alpha    69.7097
_cell_angle_beta     67.5755
_cell_angle_gamma    68.5176

_space_group_name_H-M_alt    "P 1"
_space_group_IT_number       1

loop_
  _space_group_symop_operation_xyz
  'x, y, z'

loop_
  _atom_site_type_symbol
  _atom_site_label
  _atom_site_symmetry_multiplicity
  _atom_site_fract_x
  _atom_site_fract_y
  _atom_site_fract_z
  _atom_site_occupancy
  Gd  Gd1       1.0  0.69948  0.52946  0.53369  1.0000
  Gd  Gd2       1.0  0.30053  0.47056  0.46632  1.0000
  H   H1        1.0  0.38361  0.78175  0.75960  1.0000
  H   H2        1.0  0.61638  0.21821  0.24042  1.0000
  H   H3        1.0  0.89003  0.48075  0.69408  1.0000
  H   H4        1.0  0.10997  0.51926  0.30593  1.0000
  H   H5        1.0  0.72182  0.59263  0.73934  1.0000
  H   H6        1.0  0.27819  0.40739  0.26066  1.0000
  H   H7        1.0  0.49529  0.31807  0.69095  1.0000
  H   H8        1.0  0.50471  0.68196  0.30907  1.0000
  H   H9        1.0  0.60678  0.31317  0.76663  1.0000
  H   H10       1.0  0.39324  0.68683  0.23337  1.0000
  H   H11       1.0  0.31763  0.99641  0.55115  1.0000
  H   H12       1.0  0.68240  0.00361  0.44885  1.0000
  H   H13       1.0  0.78886  0.13865  0.64103  1.0000
  H   H14       1.0  0.21117  0.86135  0.35896  1.0000
  H   H15       1.0  0.03990  0.67344  0.69295  1.0000
  H   H16       1.0  0.96011  0.32656  0.30706  1.0000
  H   H17       1.0  0.08475  0.58832  0.11853  1.0000
  H   H18       1.0  0.91520  0.41164  0.88147  1.0000
  H   H19       1.0  0.98840  0.97806  0.84786  1.0000
  H   H20       1.0  0.01159  0.02190  0.15214  1.0000
  H   H21       1.0  0.61534  0.91642  0.17718  1.0000
  H   H22       1.0  0.38466  0.08360  0.82282  1.0000
  C   C1        1.0  0.19587  0.82224  0.61955  1.0000
  C   C2        1.0  0.80415  0.17777  0.38045  1.0000
  C   C3        1.0  0.20031  0.96921  0.58543  1.0000
  C   C4        1.0  0.79971  0.03080  0.41458  1.0000
  C   C5        1.0  0.05463  0.08323  0.59119  1.0000
  C   C6        1.0  0.94539  0.91678  0.40881  1.0000
  C   C7        1.0  0.90292  0.05056  0.63602  1.0000
  C   C8        1.0  0.09710  0.94945  0.36397  1.0000
  C   C9        1.0  0.90176  0.90312  0.67474  1.0000
  C   C10       1.0  0.09826  0.09688  0.32525  1.0000
  C   C11       1.0  0.04543  0.78726  0.66615  1.0000
  C   C12       1.0  0.95459  0.21274  0.33385  1.0000
  C   C13       1.0  0.35572  0.70583  0.60170  1.0000
  C   C14       1.0  0.64429  0.29417  0.39830  1.0000
  C   C15       1.0  0.06253  0.24060  0.54537  1.0000
  C   C16       1.0  0.93750  0.75942  0.45463  1.0000
  C   C17       1.0  0.84559  0.74390  0.16214  1.0000
  C   C18       1.0  0.15439  0.25610  0.83787  1.0000
  C   C19       1.0  0.00152  0.69266  0.08840  1.0000
  C   C20       1.0  0.99845  0.30731  0.91160  1.0000
  C   C21       1.0  0.05379  0.77612  0.97536  1.0000
  C   C22       1.0  0.94618  0.22384  0.02464  1.0000
  C   C23       1.0  0.94873  0.91011  0.93458  1.0000
  C   C24       1.0  0.05126  0.08987  0.06541  1.0000
  C   C25       1.0  0.79022  0.95450  0.00725  1.0000
  C   C26       1.0  0.20977  0.04548  0.99274  1.0000
  C   C27       1.0  0.73693  0.87493  0.12089  1.0000
  C   C28       1.0  0.26305  0.12506  0.87911  1.0000
  C   C29       1.0  0.79489  0.66175  0.28588  1.0000
  C   C30       1.0  0.20509  0.33828  0.71413  1.0000
  C   C31       1.0  0.22015  0.71616  0.89827  1.0000
  C   C32       1.0  0.77981  0.28380  0.10172  1.0000
  N   N1        1.0  0.74277  0.86845  0.72133  1.0000
  N   N2        1.0  0.25724  0.13156  0.27867  1.0000
  N   N3        1.0  0.67560  0.09081  0.96292  1.0000
  N   N4        1.0  0.32439  0.90919  0.03707  1.0000
  O   O1        1.0  0.47205  0.71386  0.62925  1.0000
  O   O2        1.0  0.52796  0.28614  0.37076  1.0000
  O   O3        1.0  0.37670  0.60454  0.55493  1.0000
  O   O4        1.0  0.62331  0.39547  0.44507  1.0000
  O   O5        1.0  0.20293  0.26317  0.51058  1.0000
  O   O6        1.0  0.79708  0.73685  0.48943  1.0000
  O   O7        1.0  0.92859  0.34013  0.54282  1.0000
  O   O8        1.0  0.07142  0.65988  0.45718  1.0000
  O   O9        1.0  0.62233  0.96548  0.69581  1.0000
  O   O10       1.0  0.37769  0.03452  0.30419  1.0000
  O   O11       1.0  0.73872  0.74234  0.78340  1.0000
  O   O12       1.0  0.26130  0.25767  0.21661  1.0000
  O   O13       1.0  0.90005  0.55513  0.33013  1.0000
  O   O14       1.0  0.09992  0.44489  0.66988  1.0000
  O   O15       1.0  0.64625  0.70104  0.34807  1.0000
  O   O16       1.0  0.35374  0.29900  0.65195  1.0000
  O   O17       1.0  0.28293  0.58430  0.90457  1.0000
  O   O18       1.0  0.71700  0.41565  0.09538  1.0000
  O   O19       1.0  0.28831  0.82389  0.82150  1.0000
  O   O20       1.0  0.71169  0.17606  0.17852  1.0000
  O   O21       1.0  0.73336  0.16929  0.86612  1.0000
  O   O22       1.0  0.26665  0.83069  0.13387  1.0000
  O   O23       1.0  0.53002  0.12056  0.02139  1.0000
  O   O24       1.0  0.46998  0.87947  0.97861  1.0000
  O   O25       1.0  0.76977  0.50759  0.70466  1.0000
  O   O26       1.0  0.23023  0.49242  0.29535  1.0000
  O   O27       1.0  0.58275  0.35435  0.69165  1.0000
  O   O28       1.0  0.41726  0.64567  0.30836  1.0000
