data_image0
_chemical_formula_structural       Cu4H6C8N4Cl2O2
_chemical_formula_sum              "Cu4 H6 C8 N4 Cl2 O2"
_cell_length_a       3.43158
_cell_length_b       8.65048
_cell_length_c       9.77412
_cell_angle_alpha    89.9978
_cell_angle_beta     99.0027
_cell_angle_gamma    89.9962

_space_group_name_H-M_alt    "P 1"
_space_group_IT_number       1

loop_
  _space_group_symop_operation_xyz
  'x, y, z'

loop_
  _atom_site_type_symbol
  _atom_site_label
  _atom_site_symmetry_multiplicity
  _atom_site_fract_x
  _atom_site_fract_y
  _atom_site_fract_z
  _atom_site_occupancy
  Cu  Cu1       1.0  0.96704  0.42215  0.11045  1.0000
  Cu  Cu2       1.0  0.03280  0.92213  0.88951  1.0000
  Cu  Cu3       1.0  0.03284  0.57790  0.88954  1.0000
  Cu  Cu4       1.0  0.96718  0.07786  0.11050  1.0000
  H   H1        1.0  0.81284  0.49962  0.38183  1.0000
  H   H2        1.0  0.18715  0.99955  0.61812  1.0000
  H   H3        1.0  0.18717  0.50044  0.61814  1.0000
  H   H4        1.0  0.81280  0.00039  0.38186  1.0000
  H   H5        1.0  0.76355  0.75001  0.51671  1.0000
  H   H6        1.0  0.23658  0.24999  0.48328  1.0000
  C   C1        1.0  0.98614  0.75000  0.14544  1.0000
  C   C2        1.0  0.01383  0.25000  0.85456  1.0000
  C   C3        1.0  0.85683  0.61340  0.33870  1.0000
  C   C4        1.0  0.14310  0.11336  0.66132  1.0000
  C   C5        1.0  0.14314  0.38660  0.66130  1.0000
  C   C6        1.0  0.85699  0.88662  0.33871  1.0000
  C   C7        1.0  0.82531  0.75002  0.41070  1.0000
  C   C8        1.0  0.17469  0.24995  0.58932  1.0000
  N   N1        1.0  0.93178  0.61209  0.20731  1.0000
  N   N2        1.0  0.06822  0.11204  0.79271  1.0000
  N   N3        1.0  0.06824  0.38794  0.79270  1.0000
  N   N4        1.0  0.93179  0.88794  0.20728  1.0000
  Cl  Cl1       1.0  0.48576  0.25002  0.24950  1.0000
  Cl  Cl2       1.0  0.51425  0.74999  0.75052  1.0000
  O   O1        1.0  0.09276  0.75002  0.02427  1.0000
  O   O2        1.0  0.90722  0.24999  0.97572  1.0000
