data_image0
_chemical_formula_structural       Zn6H32C16N40F4
_chemical_formula_sum              "Zn6 H32 C16 N40 F4"
_cell_length_a       7.30985
_cell_length_b       11.6412
_cell_length_c       11.6412
_cell_angle_alpha    90
_cell_angle_beta     90
_cell_angle_gamma    89.9999

_space_group_name_H-M_alt    "P 1"
_space_group_IT_number       1

loop_
  _space_group_symop_operation_xyz
  'x, y, z'

loop_
  _atom_site_type_symbol
  _atom_site_label
  _atom_site_symmetry_multiplicity
  _atom_site_fract_x
  _atom_site_fract_y
  _atom_site_fract_z
  _atom_site_occupancy
  Zn  Zn1       1.0  1.00000  0.75000  0.25000  1.0000
  Zn  Zn2       1.0  1.00000  0.25000  0.75000  1.0000
  Zn  Zn3       1.0  0.50000  0.75000  0.25000  1.0000
  Zn  Zn4       1.0  0.50000  0.25000  0.75000  1.0000
  Zn  Zn5       1.0  0.75000  0.75000  0.75000  1.0000
  Zn  Zn6       1.0  0.25000  0.25000  0.25000  1.0000
  H   H1        1.0  0.13971  0.64697  0.47337  1.0000
  H   H2        1.0  0.13971  0.02663  0.64697  1.0000
  H   H3        1.0  0.13971  0.47337  0.85303  1.0000
  H   H4        1.0  0.36029  0.64697  0.02663  1.0000
  H   H5        1.0  0.36029  0.85303  0.47337  1.0000
  H   H6        1.0  0.13971  0.85303  0.02663  1.0000
  H   H7        1.0  0.36029  0.47337  0.64697  1.0000
  H   H8        1.0  0.36029  0.02663  0.85303  1.0000
  H   H9        1.0  0.86029  0.35303  0.52663  1.0000
  H   H10       1.0  0.86029  0.97337  0.35303  1.0000
  H   H11       1.0  0.86029  0.52663  0.14697  1.0000
  H   H12       1.0  0.63971  0.35303  0.97337  1.0000
  H   H13       1.0  0.63971  0.14697  0.52663  1.0000
  H   H14       1.0  0.86029  0.14697  0.97337  1.0000
  H   H15       1.0  0.63971  0.52663  0.35303  1.0000
  H   H16       1.0  0.63971  0.97337  0.14697  1.0000
  H   H17       1.0  0.07709  0.68446  0.61410  1.0000
  H   H18       1.0  0.07709  0.88590  0.68446  1.0000
  H   H19       1.0  0.07709  0.61410  0.81554  1.0000
  H   H20       1.0  0.42291  0.68446  0.88590  1.0000
  H   H21       1.0  0.42291  0.81554  0.61410  1.0000
  H   H22       1.0  0.07709  0.81554  0.88590  1.0000
  H   H23       1.0  0.42291  0.61410  0.68446  1.0000
  H   H24       1.0  0.42291  0.88590  0.81554  1.0000
  H   H25       1.0  0.92291  0.31554  0.38590  1.0000
  H   H26       1.0  0.92291  0.11410  0.31554  1.0000
  H   H27       1.0  0.92291  0.38590  0.18446  1.0000
  H   H28       1.0  0.57709  0.31554  0.11410  1.0000
  H   H29       1.0  0.57709  0.18446  0.38590  1.0000
  H   H30       1.0  0.92291  0.18446  0.11410  1.0000
  H   H31       1.0  0.57709  0.38590  0.31554  1.0000
  H   H32       1.0  0.57709  0.11410  0.18446  1.0000
  C   C1        1.0  0.88251  0.71009  0.49453  1.0000
  C   C2        1.0  0.88251  0.00547  0.71009  1.0000
  C   C3        1.0  0.88251  0.49453  0.78991  1.0000
  C   C4        1.0  0.61749  0.71009  0.00547  1.0000
  C   C5        1.0  0.61749  0.78991  0.49453  1.0000
  C   C6        1.0  0.88251  0.78991  0.00547  1.0000
  C   C7        1.0  0.61749  0.49453  0.71009  1.0000
  C   C8        1.0  0.61749  0.00547  0.78991  1.0000
  C   C9        1.0  0.11749  0.28991  0.50547  1.0000
  C   C10       1.0  0.11749  0.99453  0.28991  1.0000
  C   C11       1.0  0.11749  0.50547  0.21009  1.0000
  C   C12       1.0  0.38251  0.28991  0.99453  1.0000
  C   C13       1.0  0.38251  0.21009  0.50547  1.0000
  C   C14       1.0  0.11749  0.21009  0.99453  1.0000
  C   C15       1.0  0.38251  0.50547  0.28991  1.0000
  C   C16       1.0  0.38251  0.99453  0.21009  1.0000
  N   N1        1.0  0.75000  0.75000  0.56631  1.0000
  N   N2        1.0  0.75000  0.93369  0.75000  1.0000
  N   N3        1.0  0.75000  0.56631  0.75000  1.0000
  N   N4        1.0  0.75000  0.75000  0.93369  1.0000
  N   N5        1.0  0.25000  0.25000  0.43369  1.0000
  N   N6        1.0  0.25000  0.06631  0.25000  1.0000
  N   N7        1.0  0.25000  0.43369  0.25000  1.0000
  N   N8        1.0  0.25000  0.25000  0.06631  1.0000
  N   N9        1.0  0.83662  0.72313  0.38355  1.0000
  N   N10       1.0  0.83662  0.11645  0.72313  1.0000
  N   N11       1.0  0.83662  0.38355  0.77687  1.0000
  N   N12       1.0  0.66338  0.72313  0.11645  1.0000
  N   N13       1.0  0.66338  0.77687  0.38355  1.0000
  N   N14       1.0  0.83662  0.77687  0.11645  1.0000
  N   N15       1.0  0.66338  0.38355  0.72313  1.0000
  N   N16       1.0  0.66338  0.11645  0.77687  1.0000
  N   N17       1.0  0.16338  0.27687  0.61645  1.0000
  N   N18       1.0  0.16338  0.88355  0.27687  1.0000
  N   N19       1.0  0.16338  0.61645  0.22313  1.0000
  N   N20       1.0  0.33662  0.27687  0.88355  1.0000
  N   N21       1.0  0.33662  0.22313  0.61645  1.0000
  N   N22       1.0  0.16338  0.22313  0.88355  1.0000
  N   N23       1.0  0.33662  0.61645  0.27687  1.0000
  N   N24       1.0  0.33662  0.88355  0.22313  1.0000
  N   N25       1.0  0.03974  0.66109  0.53218  1.0000
  N   N26       1.0  0.03974  0.96782  0.66109  1.0000
  N   N27       1.0  0.03974  0.53218  0.83891  1.0000
  N   N28       1.0  0.46026  0.66109  0.96782  1.0000
  N   N29       1.0  0.46026  0.83891  0.53218  1.0000
  N   N30       1.0  0.03974  0.83891  0.96782  1.0000
  N   N31       1.0  0.46026  0.53218  0.66109  1.0000
  N   N32       1.0  0.46026  0.96782  0.83891  1.0000
  N   N33       1.0  0.96026  0.33891  0.46782  1.0000
  N   N34       1.0  0.96026  0.03218  0.33891  1.0000
  N   N35       1.0  0.96026  0.46782  0.16109  1.0000
  N   N36       1.0  0.53974  0.33891  0.03218  1.0000
  N   N37       1.0  0.53974  0.16109  0.46782  1.0000
  N   N38       1.0  0.96026  0.16109  0.03218  1.0000
  N   N39       1.0  0.53974  0.46782  0.33891  1.0000
  N   N40       1.0  0.53974  0.03218  0.16109  1.0000
  F   F1        1.0  0.04937  0.75000  0.75000  1.0000
  F   F2        1.0  0.45063  0.75000  0.75000  1.0000
  F   F3        1.0  0.95063  0.25000  0.25000  1.0000
  F   F4        1.0  0.54937  0.25000  0.25000  1.0000
