data_image0
_chemical_formula_structural       CoH19C23N3O8
_chemical_formula_sum              "Co1 H19 C23 N3 O8"
_cell_length_a       7.22709
_cell_length_b       7.91156
_cell_length_c       10.4223
_cell_angle_alpha    83.836
_cell_angle_beta     72.4514
_cell_angle_gamma    64.4853

_space_group_name_H-M_alt    "P 1"
_space_group_IT_number       1

loop_
  _space_group_symop_operation_xyz
  'x, y, z'

loop_
  _atom_site_type_symbol
  _atom_site_label
  _atom_site_symmetry_multiplicity
  _atom_site_fract_x
  _atom_site_fract_y
  _atom_site_fract_z
  _atom_site_occupancy
  Co  Co1       1.0  0.49712  0.49554  0.49991  1.0000
  H   H1        1.0  0.94915  0.49038  0.50973  1.0000
  H   H2        1.0  0.68411  0.26668  0.09243  1.0000
  H   H3        1.0  0.58880  0.08518  0.29104  1.0000
  H   H4        1.0  0.29937  0.98278  0.31942  1.0000
  H   H5        1.0  0.09481  0.06831  0.14896  1.0000
  H   H6        1.0  0.04713  0.21916  0.92928  1.0000
  H   H7        1.0  0.27274  0.69985  0.14373  1.0000
  H   H8        1.0  0.24097  0.84316  0.92028  1.0000
  H   H9        1.0  0.04350  0.94229  0.74763  1.0000
  H   H10       1.0  0.71831  0.88494  0.78080  1.0000
  H   H11       1.0  0.58868  0.73300  0.98518  1.0000
  H   H12       1.0  0.61869  0.59759  0.20808  1.0000
  H   H13       1.0  0.79154  0.53617  0.70605  1.0000
  H   H14       1.0  0.83941  0.39706  0.84518  1.0000
  H   H15       1.0  0.91921  0.28932  0.68481  1.0000
  H   H16       1.0  0.84679  0.02022  0.58625  1.0000
  H   H17       1.0  0.94957  0.15775  0.46230  1.0000
  H   H18       1.0  0.92995  0.95828  0.41183  1.0000
  H   H19       1.0  0.54194  0.14037  0.51154  1.0000
  C   C1        1.0  0.41512  0.40041  0.79407  1.0000
  C   C2        1.0  0.44713  0.26253  0.00891  1.0000
  C   C3        1.0  0.55853  0.21999  0.10458  1.0000
  C   C4        1.0  0.50322  0.11903  0.21528  1.0000
  C   C5        1.0  0.33732  0.06293  0.23179  1.0000
  C   C6        1.0  0.22530  0.10899  0.13707  1.0000
  C   C7        1.0  0.27946  0.20970  0.02222  1.0000
  C   C8        1.0  0.17537  0.26163  0.91956  1.0000
  C   C9        1.0  0.23447  0.35805  0.80763  1.0000
  C   C10       1.0  0.11947  0.41376  0.70613  1.0000
  C   C11       1.0  0.17812  0.55162  0.37139  1.0000
  C   C12       1.0  0.05429  0.59862  0.27403  1.0000
  C   C13       1.0  0.12901  0.67859  0.15580  1.0000
  C   C14       1.0  0.02428  0.73505  0.05446  1.0000
  C   C15       1.0  0.09608  0.82229  0.93532  1.0000
  C   C16       1.0  0.98674  0.87725  0.83936  1.0000
  C   C17       1.0  0.80231  0.84426  0.85814  1.0000
  C   C18       1.0  0.73023  0.75832  0.97188  1.0000
  C   C19       1.0  0.83668  0.70214  0.07435  1.0000
  C   C20       1.0  0.76259  0.61913  0.19332  1.0000
  C   C21       1.0  0.86204  0.56800  0.29683  1.0000
  C   C22       1.0  0.90742  0.40806  0.73786  1.0000
  C   C23       1.0  0.85422  0.07642  0.48470  1.0000
  N   N1        1.0  0.20428  0.46424  0.58704  1.0000
  N   N2        1.0  0.09075  0.50459  0.49609  1.0000
  N   N3        1.0  0.43379  0.88530  0.56037  1.0000
  O   O1        1.0  0.50039  0.47375  0.69754  1.0000
  O   O2        1.0  0.50718  0.35685  0.89779  1.0000
  O   O3        1.0  0.35826  0.55740  0.34428  1.0000
  O   O4        1.0  0.78996  0.49132  0.40865  1.0000
  O   O5        1.0  0.35015  0.79178  0.52309  1.0000
  O   O6        1.0  0.58941  0.80835  0.60765  1.0000
  O   O7        1.0  0.35023  0.06237  0.54655  1.0000
  O   O8        1.0  0.64471  0.19906  0.47317  1.0000
