data_image0
_chemical_formula_structural       MnH19C23N3O8
_chemical_formula_sum              "Mn1 H19 C23 N3 O8"
_cell_length_a       7.32241
_cell_length_b       8.02263
_cell_length_c       10.3098
_cell_angle_alpha    84.4849
_cell_angle_beta     74.1277
_cell_angle_gamma    64.5076

_space_group_name_H-M_alt    "P 1"
_space_group_IT_number       1

loop_
  _space_group_symop_operation_xyz
  'x, y, z'

loop_
  _atom_site_type_symbol
  _atom_site_label
  _atom_site_symmetry_multiplicity
  _atom_site_fract_x
  _atom_site_fract_y
  _atom_site_fract_z
  _atom_site_occupancy
  Mn  Mn1       1.0  0.05022  0.49048  0.45995  1.0000
  H   H1        1.0  0.49507  0.48012  0.45834  1.0000
  H   H2        1.0  0.08813  0.12779  0.48874  1.0000
  H   H3        1.0  0.42713  0.94512  0.51030  1.0000
  H   H4        1.0  0.50125  0.12330  0.43010  1.0000
  H   H5        1.0  0.44528  0.98483  0.33471  1.0000
  H   H6        1.0  0.80590  0.68893  0.09906  1.0000
  H   H7        1.0  0.76417  0.83550  0.87766  1.0000
  H   H8        1.0  0.56231  0.93849  0.70425  1.0000
  H   H9        1.0  0.24235  0.88350  0.73510  1.0000
  H   H10       1.0  0.12420  0.72737  0.93652  1.0000
  H   H11       1.0  0.16347  0.58754  0.15937  1.0000
  H   H12       1.0  0.46321  0.27834  0.63834  1.0000
  H   H13       1.0  0.33669  0.52265  0.65520  1.0000
  H   H14       1.0  0.37975  0.39045  0.79817  1.0000
  H   H15       1.0  0.59084  0.20816  0.88273  1.0000
  H   H16       1.0  0.63943  0.05385  0.10173  1.0000
  H   H17       1.0  0.83887  0.96493  0.27822  1.0000
  H   H18       1.0  0.12323  0.06208  0.25914  1.0000
  H   H19       1.0  0.21687  0.24556  0.06414  1.0000
  C   C1        1.0  0.40177  0.05202  0.43381  1.0000
  C   C2        1.0  0.72012  0.54009  0.32669  1.0000
  C   C3        1.0  0.59587  0.58741  0.22758  1.0000
  C   C4        1.0  0.66445  0.66846  0.11038  1.0000
  C   C5        1.0  0.55626  0.72664  0.00907  1.0000
  C   C6        1.0  0.62160  0.81581  0.89140  1.0000
  C   C7        1.0  0.50970  0.87295  0.79526  1.0000
  C   C8        1.0  0.32864  0.84072  0.81252  1.0000
  C   C9        1.0  0.26296  0.75250  0.92466  1.0000
  C   C10       1.0  0.37244  0.69382  0.02732  1.0000
  C   C11       1.0  0.30521  0.60861  0.14515  1.0000
  C   C12       1.0  0.40809  0.55688  0.24871  1.0000
  C   C13       1.0  0.44918  0.39792  0.69107  1.0000
  C   C14       1.0  0.65649  0.40504  0.66390  1.0000
  C   C15       1.0  0.77028  0.34994  0.76884  1.0000
  C   C16       1.0  0.71558  0.25046  0.87727  1.0000
  C   C17       1.0  0.81860  0.19604  0.98248  1.0000
  C   C18       1.0  0.76667  0.09378  0.09450  1.0000
  C   C19       1.0  0.87636  0.04537  0.19234  1.0000
  C   C20       1.0  0.03906  0.09935  0.18111  1.0000
  C   C21       1.0  0.09319  0.20088  0.07275  1.0000
  C   C22       1.0  0.98252  0.24744  0.97451  1.0000
  C   C23       1.0  0.94182  0.39863  0.76305  1.0000
  N   N1        1.0  0.97568  0.88219  0.52120  1.0000
  N   N2        1.0  0.74092  0.45406  0.54651  1.0000
  N   N3        1.0  0.63380  0.49368  0.45073  1.0000
  O   O1        1.0  0.01325  0.48604  0.67469  1.0000
  O   O2        1.0  0.03838  0.34562  0.86717  1.0000
  O   O3        1.0  0.89639  0.54575  0.30071  1.0000
  O   O4        1.0  0.34030  0.48215  0.36111  1.0000
  O   O5        1.0  0.88499  0.79375  0.48749  1.0000
  O   O6        1.0  0.13473  0.80041  0.56499  1.0000
  O   O7        1.0  0.89898  0.05658  0.50720  1.0000
  O   O8        1.0  0.18806  0.18753  0.46639  1.0000
