data_image0
_chemical_formula_structural       MnH19C23N5O5
_chemical_formula_sum              "Mn1 H19 C23 N5 O5"
_cell_length_a       7.4385
_cell_length_b       7.63079
_cell_length_c       10.5885
_cell_angle_alpha    82.1818
_cell_angle_beta     74.5514
_cell_angle_gamma    62.9905

_space_group_name_H-M_alt    "P 1"
_space_group_IT_number       1

loop_
  _space_group_symop_operation_xyz
  'x, y, z'

loop_
  _atom_site_type_symbol
  _atom_site_label
  _atom_site_symmetry_multiplicity
  _atom_site_fract_x
  _atom_site_fract_y
  _atom_site_fract_z
  _atom_site_occupancy
  Mn  Mn1       1.0  0.04382  0.49558  0.45947  1.0000
  H   H1        1.0  0.50480  0.46702  0.46466  1.0000
  H   H2        1.0  0.13352  0.09287  0.50292  1.0000
  H   H3        1.0  0.46853  0.95006  0.50329  1.0000
  H   H4        1.0  0.50420  0.14091  0.39730  1.0000
  H   H5        1.0  0.47400  0.95310  0.33332  1.0000
  H   H6        1.0  0.22212  0.24894  0.06100  1.0000
  H   H7        1.0  0.12581  0.07342  0.26474  1.0000
  H   H8        1.0  0.84869  0.96710  0.29047  1.0000
  H   H9        1.0  0.65151  0.04963  0.11560  1.0000
  H   H10       1.0  0.60608  0.19561  0.89302  1.0000
  H   H11       1.0  0.80434  0.67420  0.10178  1.0000
  H   H12       1.0  0.76358  0.81118  0.87748  1.0000
  H   H13       1.0  0.56721  0.90194  0.70414  1.0000
  H   H14       1.0  0.24504  0.85363  0.74387  1.0000
  H   H15       1.0  0.12737  0.70633  0.95186  1.0000
  H   H16       1.0  0.16349  0.58073  0.17784  1.0000
  H   H17       1.0  0.35556  0.50815  0.65806  1.0000
  H   H18       1.0  0.40985  0.34946  0.79264  1.0000
  H   H19       1.0  0.48878  0.25138  0.63388  1.0000
  C   C1        1.0  0.42498  0.04592  0.41856  1.0000
  C   C2        1.0  0.95903  0.38022  0.75886  1.0000
  C   C3        1.0  0.99283  0.24219  0.97559  1.0000
  C   C4        1.0  0.09999  0.20221  0.07351  1.0000
  C   C5        1.0  0.04490  0.10416  0.18647  1.0000
  C   C6        1.0  0.88477  0.04742  0.20180  1.0000
  C   C7        1.0  0.77732  0.09103  0.10443  1.0000
  C   C8        1.0  0.83003  0.18986  0.98820  1.0000
  C   C9        1.0  0.72987  0.23916  0.88305  1.0000
  C   C10       1.0  0.78651  0.33312  0.76945  1.0000
  C   C11       1.0  0.67560  0.38240  0.66441  1.0000
  C   C12       1.0  0.72082  0.53255  0.33304  1.0000
  C   C13       1.0  0.59409  0.58128  0.23708  1.0000
  C   C14       1.0  0.66269  0.65636  0.11674  1.0000
  C   C15       1.0  0.55566  0.70969  0.01607  1.0000
  C   C16       1.0  0.62228  0.79170  0.89432  1.0000
  C   C17       1.0  0.51256  0.84295  0.79815  1.0000
  C   C18       1.0  0.33219  0.81235  0.82001  1.0000
  C   C19       1.0  0.26596  0.72995  0.93629  1.0000
  C   C20       1.0  0.37340  0.67716  0.03868  1.0000
  C   C21       1.0  0.30482  0.59990  0.16050  1.0000
  C   C22       1.0  0.40550  0.55576  0.26315  1.0000
  C   C23       1.0  0.47352  0.37091  0.68971  1.0000
  N   N1        1.0  0.75499  0.43418  0.54797  1.0000
  N   N2        1.0  0.64532  0.47542  0.45470  1.0000
  N   N3        1.0  0.89098  0.80462  0.49451  1.0000
  N   N4        1.0  0.96565  0.87679  0.54522  1.0000
  N   N5        1.0  0.03736  0.94939  0.59689  1.0000
  O   O1        1.0  0.03783  0.45860  0.66529  1.0000
  O   O2        1.0  0.05011  0.33582  0.86376  1.0000
  O   O3        1.0  0.89091  0.54466  0.30571  1.0000
  O   O4        1.0  0.33435  0.49256  0.37981  1.0000
  O   O5        1.0  0.20570  0.16997  0.44473  1.0000
