data_image0
_chemical_formula_structural       Sr4H44C16N4O28
_chemical_formula_sum              "Sr4 H44 C16 N4 O28"
_cell_length_a       7.24574
_cell_length_b       9.97496
_cell_length_c       11.6052
_cell_angle_alpha    89.9998
_cell_angle_beta     89.9999
_cell_angle_gamma    89.9999

_space_group_name_H-M_alt    "P 1"
_space_group_IT_number       1

loop_
  _space_group_symop_operation_xyz
  'x, y, z'

loop_
  _atom_site_type_symbol
  _atom_site_label
  _atom_site_symmetry_multiplicity
  _atom_site_fract_x
  _atom_site_fract_y
  _atom_site_fract_z
  _atom_site_occupancy
  Sr  Sr1       1.0  0.24983  0.12455  0.01395  1.0000
  Sr  Sr2       1.0  0.74982  0.37545  0.98605  1.0000
  Sr  Sr3       1.0  0.75017  0.62455  0.48605  1.0000
  Sr  Sr4       1.0  0.25017  0.87545  0.51395  1.0000
  H   H1        1.0  0.02818  0.65236  0.97065  1.0000
  H   H2        1.0  0.52818  0.84765  0.02935  1.0000
  H   H3        1.0  0.97182  0.15235  0.52935  1.0000
  H   H4        1.0  0.47183  0.34765  0.47065  1.0000
  H   H5        1.0  0.21076  0.68369  0.78522  1.0000
  H   H6        1.0  0.71076  0.81630  0.21478  1.0000
  H   H7        1.0  0.78924  0.18370  0.71478  1.0000
  H   H8        1.0  0.28924  0.31631  0.28522  1.0000
  H   H9        1.0  0.35967  0.57798  0.84218  1.0000
  H   H10       1.0  0.85967  0.92202  0.15782  1.0000
  H   H11       1.0  0.64033  0.07798  0.65782  1.0000
  H   H12       1.0  0.14033  0.42202  0.34218  1.0000
  H   H13       1.0  0.41712  0.60904  0.06231  1.0000
  H   H14       1.0  0.91712  0.89095  0.93768  1.0000
  H   H15       1.0  0.58288  0.10905  0.43768  1.0000
  H   H16       1.0  0.08288  0.39096  0.56231  1.0000
  H   H17       1.0  0.20678  0.61358  0.13907  1.0000
  H   H18       1.0  0.70679  0.88643  0.86094  1.0000
  H   H19       1.0  0.79321  0.11357  0.36093  1.0000
  H   H20       1.0  0.29322  0.38642  0.63907  1.0000
  H   H21       1.0  0.10353  0.12058  0.27156  1.0000
  H   H22       1.0  0.60353  0.37942  0.72844  1.0000
  H   H23       1.0  0.89646  0.62058  0.22844  1.0000
  H   H24       1.0  0.39646  0.87942  0.77156  1.0000
  H   H25       1.0  0.93911  0.18065  0.19584  1.0000
  H   H26       1.0  0.43911  0.31934  0.80416  1.0000
  H   H27       1.0  0.06089  0.68066  0.30416  1.0000
  H   H28       1.0  0.56089  0.81935  0.69584  1.0000
  H   H29       1.0  0.41454  0.07684  0.26931  1.0000
  H   H30       1.0  0.91454  0.42316  0.73069  1.0000
  H   H31       1.0  0.58546  0.57684  0.23069  1.0000
  H   H32       1.0  0.08546  0.92316  0.76931  1.0000
  H   H33       1.0  0.57167  0.01128  0.18576  1.0000
  H   H34       1.0  0.07168  0.48872  0.81424  1.0000
  H   H35       1.0  0.42832  0.51128  0.31424  1.0000
  H   H36       1.0  0.92832  0.98872  0.68576  1.0000
  H   H37       1.0  0.25772  0.18199  0.72243  1.0000
  H   H38       1.0  0.75772  0.31801  0.27756  1.0000
  H   H39       1.0  0.74228  0.68199  0.77756  1.0000
  H   H40       1.0  0.24228  0.81801  0.22244  1.0000
  H   H41       1.0  0.13520  0.28272  0.79777  1.0000
  H   H42       1.0  0.63519  0.21728  0.20224  1.0000
  H   H43       1.0  0.86480  0.78272  0.70223  1.0000
  H   H44       1.0  0.36480  0.71728  0.29777  1.0000
  C   C1        1.0  0.21380  0.81402  0.97740  1.0000
  C   C2        1.0  0.71379  0.68598  0.02260  1.0000
  C   C3        1.0  0.78621  0.31402  0.52260  1.0000
  C   C4        1.0  0.28620  0.18598  0.47740  1.0000
  C   C5        1.0  0.17859  0.66318  0.96044  1.0000
  C   C6        1.0  0.67860  0.83682  0.03956  1.0000
  C   C7        1.0  0.82141  0.16318  0.53956  1.0000
  C   C8        1.0  0.32140  0.33682  0.46044  1.0000
  C   C9        1.0  0.27064  0.58409  0.05729  1.0000
  C   C10       1.0  0.77065  0.91591  0.94272  1.0000
  C   C11       1.0  0.72936  0.08410  0.44271  1.0000
  C   C12       1.0  0.22936  0.41591  0.55729  1.0000
  C   C13       1.0  0.25276  0.43313  0.04775  1.0000
  C   C14       1.0  0.75278  0.06687  0.95225  1.0000
  C   C15       1.0  0.74723  0.93313  0.45225  1.0000
  C   C16       1.0  0.24723  0.56687  0.54775  1.0000
  N   N1        1.0  0.22519  0.61011  0.84594  1.0000
  N   N2        1.0  0.72519  0.88988  0.15406  1.0000
  N   N3        1.0  0.77481  0.11011  0.65406  1.0000
  N   N4        1.0  0.27481  0.38989  0.34594  1.0000
  O   O1        1.0  0.24616  0.88819  0.88956  1.0000
  O   O2        1.0  0.74616  0.61181  0.11044  1.0000
  O   O3        1.0  0.75385  0.38819  0.61044  1.0000
  O   O4        1.0  0.25384  0.11181  0.38956  1.0000
  O   O5        1.0  0.20121  0.86316  0.07800  1.0000
  O   O6        1.0  0.70120  0.63684  0.92200  1.0000
  O   O7        1.0  0.79882  0.36316  0.42200  1.0000
  O   O8        1.0  0.29879  0.13684  0.57800  1.0000
  O   O9        1.0  0.40081  0.36364  0.04918  1.0000
  O   O10       1.0  0.90083  0.13636  0.95082  1.0000
  O   O11       1.0  0.59918  0.86363  0.45082  1.0000
  O   O12       1.0  0.09918  0.63636  0.54918  1.0000
  O   O13       1.0  0.09348  0.38060  0.04193  1.0000
  O   O14       1.0  0.59350  0.11940  0.95808  1.0000
  O   O15       1.0  0.90651  0.88060  0.45808  1.0000
  O   O16       1.0  0.40651  0.61940  0.54192  1.0000
  O   O17       1.0  0.04387  0.11622  0.19516  1.0000
  O   O18       1.0  0.54387  0.38378  0.80483  1.0000
  O   O19       1.0  0.95613  0.61623  0.30483  1.0000
  O   O20       1.0  0.45613  0.88378  0.69517  1.0000
  O   O21       1.0  0.47928  0.08881  0.19551  1.0000
  O   O22       1.0  0.97929  0.41119  0.80449  1.0000
  O   O23       1.0  0.52071  0.58881  0.30449  1.0000
  O   O24       1.0  0.02071  0.91119  0.69551  1.0000
  O   O25       1.0  0.24130  0.21816  0.80145  1.0000
  O   O26       1.0  0.74130  0.28184  0.19855  1.0000
  O   O27       1.0  0.75870  0.71816  0.69855  1.0000
  O   O28       1.0  0.25870  0.78184  0.30145  1.0000
