data_image0
_chemical_formula_structural       Rb4H8C24N12O36
_chemical_formula_sum              "Rb4 H8 C24 N12 O36"
_cell_length_a       9.47262
_cell_length_b       9.82755
_cell_length_c       11.7776
_cell_angle_alpha    85.953
_cell_angle_beta     66.2807
_cell_angle_gamma    79.874

_space_group_name_H-M_alt    "P 1"
_space_group_IT_number       1

loop_
  _space_group_symop_operation_xyz
  'x, y, z'

loop_
  _atom_site_type_symbol
  _atom_site_label
  _atom_site_symmetry_multiplicity
  _atom_site_fract_x
  _atom_site_fract_y
  _atom_site_fract_z
  _atom_site_occupancy
  Rb  Rb1       1.0  0.68443  0.76125  0.10046  1.0000
  Rb  Rb2       1.0  0.21521  0.73880  0.10029  1.0000
  Rb  Rb3       1.0  0.31557  0.23874  0.89953  1.0000
  Rb  Rb4       1.0  0.78479  0.26121  0.89971  1.0000
  H   H1        1.0  0.39784  0.96360  0.61464  1.0000
  H   H2        1.0  0.98737  0.53624  0.61484  1.0000
  H   H3        1.0  0.60216  0.03640  0.38536  1.0000
  H   H4        1.0  0.01263  0.46376  0.38516  1.0000
  H   H5        1.0  0.64615  0.58941  0.44076  1.0000
  H   H6        1.0  0.91270  0.91082  0.44081  1.0000
  H   H7        1.0  0.35385  0.41059  0.55924  1.0000
  H   H8        1.0  0.08730  0.08918  0.55919  1.0000
  C   C1        1.0  0.09199  0.74998  0.81598  1.0000
  C   C2        1.0  0.90801  0.25002  0.18402  1.0000
  C   C3        1.0  0.20904  0.83739  0.74194  1.0000
  C   C4        1.0  0.04885  0.66255  0.74202  1.0000
  C   C5        1.0  0.79096  0.16261  0.25806  1.0000
  C   C6        1.0  0.95115  0.33745  0.25798  1.0000
  C   C7        1.0  0.27978  0.83215  0.60924  1.0000
  C   C8        1.0  0.11082  0.66771  0.60930  1.0000
  C   C9        1.0  0.72022  0.16785  0.39076  1.0000
  C   C10       1.0  0.88918  0.33229  0.39070  1.0000
  C   C11       1.0  0.22718  0.74996  0.54538  1.0000
  C   C12       1.0  0.77281  0.25004  0.45462  1.0000
  C   C13       1.0  0.60287  0.75001  0.79440  1.0000
  C   C14       1.0  0.39714  0.24999  0.20560  1.0000
  C   C15       1.0  0.57258  0.65442  0.72098  1.0000
  C   C16       1.0  0.70668  0.84550  0.72099  1.0000
  C   C17       1.0  0.42741  0.34558  0.27902  1.0000
  C   C18       1.0  0.29332  0.15450  0.27901  1.0000
  C   C19       1.0  0.63005  0.65675  0.59185  1.0000
  C   C20       1.0  0.77810  0.84332  0.59184  1.0000
  C   C21       1.0  0.36994  0.34325  0.40815  1.0000
  C   C22       1.0  0.22190  0.15668  0.40816  1.0000
  C   C23       1.0  0.73758  0.75003  0.52481  1.0000
  C   C24       1.0  0.26242  0.24997  0.47519  1.0000
  N   N1        1.0  0.25044  0.93131  0.80235  1.0000
  N   N2        1.0  0.94707  0.56863  0.80248  1.0000
  N   N3        1.0  0.74956  0.06870  0.19765  1.0000
  N   N4        1.0  0.05293  0.43136  0.19752  1.0000
  N   N5        1.0  0.29384  0.75000  0.41181  1.0000
  N   N6        1.0  0.70616  0.25000  0.58819  1.0000
  N   N7        1.0  0.48150  0.54868  0.78591  1.0000
  N   N8        1.0  0.73268  0.95138  0.78589  1.0000
  N   N9        1.0  0.51850  0.45132  0.21409  1.0000
  N   N10       1.0  0.26732  0.04862  0.21411  1.0000
  N   N11       1.0  0.80181  0.75009  0.39624  1.0000
  N   N12       1.0  0.19819  0.24991  0.60377  1.0000
  O   O1        1.0  0.03442  0.74996  0.93128  1.0000
  O   O2        1.0  0.96558  0.25004  0.06872  1.0000
  O   O3        1.0  0.18761  0.95128  0.91600  1.0000
  O   O4        1.0  0.89625  0.54873  0.91614  1.0000
  O   O5        1.0  0.81240  0.04872  0.08400  1.0000
  O   O6        1.0  0.10375  0.45128  0.08386  1.0000
  O   O7        1.0  0.35994  0.00286  0.73630  1.0000
  O   O8        1.0  0.90366  0.49699  0.73647  1.0000
  O   O9        1.0  0.64005  0.99714  0.26370  1.0000
  O   O10       1.0  0.09634  0.50301  0.26353  1.0000
  O   O11       1.0  0.38707  0.90831  0.54520  1.0000
  O   O12       1.0  0.06758  0.59148  0.54531  1.0000
  O   O13       1.0  0.61293  0.09169  0.45480  1.0000
  O   O14       1.0  0.93242  0.40852  0.45469  1.0000
  O   O15       1.0  0.43617  0.75421  0.35695  1.0000
  O   O16       1.0  0.20617  0.74583  0.35713  1.0000
  O   O17       1.0  0.56383  0.24579  0.64305  1.0000
  O   O18       1.0  0.79383  0.25417  0.64287  1.0000
  O   O19       1.0  0.54455  0.75014  0.91054  1.0000
  O   O20       1.0  0.45545  0.24986  0.08946  1.0000
  O   O21       1.0  0.51604  0.48131  0.86732  1.0000
  O   O22       1.0  0.61662  0.01866  0.86729  1.0000
  O   O23       1.0  0.48396  0.51869  0.13268  1.0000
  O   O24       1.0  0.38338  0.98134  0.13271  1.0000
  O   O25       1.0  0.37166  0.52934  0.75910  1.0000
  O   O26       1.0  0.86929  0.97081  0.75913  1.0000
  O   O27       1.0  0.62834  0.47065  0.24090  1.0000
  O   O28       1.0  0.13071  0.02919  0.24087  1.0000
  O   O29       1.0  0.59107  0.57004  0.53264  1.0000
  O   O30       1.0  0.87595  0.93029  0.53265  1.0000
  O   O31       1.0  0.40893  0.42996  0.46736  1.0000
  O   O32       1.0  0.12405  0.06971  0.46735  1.0000
  O   O33       1.0  0.76762  0.66783  0.33563  1.0000
  O   O34       1.0  0.89653  0.83238  0.33568  1.0000
  O   O35       1.0  0.23238  0.33217  0.66437  1.0000
  O   O36       1.0  0.10347  0.16761  0.66432  1.0000
