data_image0
_chemical_formula_structural       Sn4H12C28N4O20
_chemical_formula_sum              "Sn4 H12 C28 N4 O20"
_cell_length_a       5.412
_cell_length_b       8.10775
_cell_length_c       17.8784
_cell_angle_alpha    90.0006
_cell_angle_beta     89.9993
_cell_angle_gamma    90.0001

_space_group_name_H-M_alt    "P 1"
_space_group_IT_number       1

loop_
  _space_group_symop_operation_xyz
  'x, y, z'

loop_
  _atom_site_type_symbol
  _atom_site_label
  _atom_site_symmetry_multiplicity
  _atom_site_fract_x
  _atom_site_fract_y
  _atom_site_fract_z
  _atom_site_occupancy
  Sn  Sn1       1.0  0.83105  0.92299  0.32132  1.0000
  Sn  Sn2       1.0  0.33109  0.07702  0.67869  1.0000
  Sn  Sn3       1.0  0.33103  0.42298  0.17868  1.0000
  Sn  Sn4       1.0  0.83107  0.57703  0.82131  1.0000
  H   H1        1.0  0.15829  0.27336  0.46779  1.0000
  H   H2        1.0  0.65829  0.72664  0.53221  1.0000
  H   H3        1.0  0.65828  0.77337  0.03221  1.0000
  H   H4        1.0  0.15829  0.22664  0.96779  1.0000
  H   H5        1.0  0.36977  0.68458  0.42198  1.0000
  H   H6        1.0  0.86977  0.31543  0.57803  1.0000
  H   H7        1.0  0.86978  0.18457  0.07803  1.0000
  H   H8        1.0  0.36978  0.81543  0.92197  1.0000
  H   H9        1.0  0.70503  0.57164  0.35212  1.0000
  H   H10       1.0  0.20503  0.42836  0.64789  1.0000
  H   H11       1.0  0.20503  0.07162  0.14789  1.0000
  H   H12       1.0  0.70504  0.92836  0.85211  1.0000
  C   C1        1.0  0.41598  0.44561  0.41624  1.0000
  C   C2        1.0  0.91599  0.55440  0.58377  1.0000
  C   C3        1.0  0.91598  0.94560  0.08376  1.0000
  C   C4        1.0  0.41599  0.05440  0.91624  1.0000
  C   C5        1.0  0.34447  0.97953  0.41953  1.0000
  C   C6        1.0  0.84449  0.02046  0.58048  1.0000
  C   C7        1.0  0.84445  0.47953  0.08047  1.0000
  C   C8        1.0  0.34447  0.52047  0.91952  1.0000
  C   C9        1.0  0.44537  0.14997  0.40708  1.0000
  C   C10       1.0  0.94538  0.85003  0.59292  1.0000
  C   C11       1.0  0.94536  0.64997  0.09291  1.0000
  C   C12       1.0  0.44537  0.35004  0.90708  1.0000
  C   C13       1.0  0.32426  0.28816  0.43413  1.0000
  C   C14       1.0  0.82427  0.71184  0.56588  1.0000
  C   C15       1.0  0.82425  0.78816  0.06587  1.0000
  C   C16       1.0  0.32427  0.21184  0.93412  1.0000
  C   C17       1.0  0.62792  0.45472  0.37032  1.0000
  C   C18       1.0  0.12793  0.54528  0.62968  1.0000
  C   C19       1.0  0.12792  0.95471  0.12968  1.0000
  C   C20       1.0  0.62794  0.04528  0.87032  1.0000
  C   C21       1.0  0.94693  0.30895  0.29076  1.0000
  C   C22       1.0  0.44694  0.69105  0.70925  1.0000
  C   C23       1.0  0.44692  0.80894  0.20924  1.0000
  C   C24       1.0  0.94695  0.19105  0.79076  1.0000
  C   C25       1.0  0.73534  0.31020  0.34511  1.0000
  C   C26       1.0  0.23534  0.68980  0.65490  1.0000
  C   C27       1.0  0.23533  0.81019  0.15489  1.0000
  C   C28       1.0  0.73534  0.18981  0.84510  1.0000
  N   N1        1.0  0.64845  0.16011  0.36408  1.0000
  N   N2        1.0  0.14846  0.83989  0.63592  1.0000
  N   N3        1.0  0.14843  0.66010  0.13592  1.0000
  N   N4        1.0  0.64846  0.33990  0.86408  1.0000
  O   O1        1.0  0.48479  0.85842  0.39756  1.0000
  O   O2        1.0  0.98480  0.14158  0.60244  1.0000
  O   O3        1.0  0.98476  0.35842  0.10244  1.0000
  O   O4        1.0  0.48479  0.64158  0.89756  1.0000
  O   O5        1.0  0.13138  0.96302  0.44503  1.0000
  O   O6        1.0  0.63140  0.03698  0.55498  1.0000
  O   O7        1.0  0.63136  0.46302  0.05497  1.0000
  O   O8        1.0  0.13137  0.53698  0.94502  1.0000
  O   O9        1.0  0.29638  0.57724  0.44163  1.0000
  O   O10       1.0  0.79640  0.42277  0.55837  1.0000
  O   O11       1.0  0.79639  0.07723  0.05837  1.0000
  O   O12       1.0  0.29640  0.92277  0.94163  1.0000
  O   O13       1.0  0.03386  0.44799  0.26983  1.0000
  O   O14       1.0  0.53388  0.55202  0.73017  1.0000
  O   O15       1.0  0.53387  0.94796  0.23016  1.0000
  O   O16       1.0  0.03389  0.05203  0.76984  1.0000
  O   O17       1.0  0.02232  0.16959  0.26768  1.0000
  O   O18       1.0  0.52236  0.83042  0.73231  1.0000
  O   O19       1.0  0.52233  0.66956  0.23231  1.0000
  O   O20       1.0  0.02236  0.33043  0.76768  1.0000
