data_image0
_chemical_formula_structural       Cd4H12C16N32
_chemical_formula_sum              "Cd4 H12 C16 N32"
_cell_length_a       7.70068
_cell_length_b       8.00447
_cell_length_c       13.0938
_cell_angle_alpha    90.0004
_cell_angle_beta     89.9996
_cell_angle_gamma    109.428

_space_group_name_H-M_alt    "P 1"
_space_group_IT_number       1

loop_
  _space_group_symop_operation_xyz
  'x, y, z'

loop_
  _atom_site_type_symbol
  _atom_site_label
  _atom_site_symmetry_multiplicity
  _atom_site_fract_x
  _atom_site_fract_y
  _atom_site_fract_z
  _atom_site_occupancy
  Cd  Cd1       1.0  0.36400  0.79966  0.92341  1.0000
  Cd  Cd2       1.0  0.63600  0.70034  0.42341  1.0000
  Cd  Cd3       1.0  0.63600  0.20034  0.07659  1.0000
  Cd  Cd4       1.0  0.36400  0.29966  0.57659  1.0000
  H   H1        1.0  0.91053  0.36484  0.28267  1.0000
  H   H2        1.0  0.08947  0.13517  0.78267  1.0000
  H   H3        1.0  0.08947  0.63517  0.71733  1.0000
  H   H4        1.0  0.91053  0.86483  0.21733  1.0000
  H   H5        1.0  0.21537  0.60649  0.32313  1.0000
  H   H6        1.0  0.78463  0.89351  0.82313  1.0000
  H   H7        1.0  0.78463  0.39351  0.67687  1.0000
  H   H8        1.0  0.21537  0.10649  0.17687  1.0000
  H   H9        1.0  0.40087  0.77104  0.17213  1.0000
  H   H10       1.0  0.59914  0.72896  0.67213  1.0000
  H   H11       1.0  0.59913  0.22896  0.82787  1.0000
  H   H12       1.0  0.40086  0.27104  0.32787  1.0000
  C   C1        1.0  0.03686  0.51536  0.05300  1.0000
  C   C2        1.0  0.96314  0.98464  0.55300  1.0000
  C   C3        1.0  0.96314  0.48464  0.94700  1.0000
  C   C4        1.0  0.03685  0.01536  0.44700  1.0000
  C   C5        1.0  0.99677  0.44832  0.22356  1.0000
  C   C6        1.0  0.00323  0.05168  0.72356  1.0000
  C   C7        1.0  0.00323  0.55168  0.77644  1.0000
  C   C8        1.0  0.99677  0.94832  0.27644  1.0000
  C   C9        1.0  0.16425  0.57883  0.24538  1.0000
  C   C10       1.0  0.83576  0.92117  0.74538  1.0000
  C   C11       1.0  0.83575  0.42117  0.75462  1.0000
  C   C12       1.0  0.16425  0.07883  0.25462  1.0000
  C   C13       1.0  0.26531  0.67115  0.16295  1.0000
  C   C14       1.0  0.73469  0.82885  0.66296  1.0000
  C   C15       1.0  0.73469  0.32885  0.83705  1.0000
  C   C16       1.0  0.26531  0.17115  0.33705  1.0000
  N   N1        1.0  0.20138  0.63971  0.06719  1.0000
  N   N2        1.0  0.79862  0.86029  0.56720  1.0000
  N   N3        1.0  0.79862  0.36029  0.93280  1.0000
  N   N4        1.0  0.20138  0.13970  0.43281  1.0000
  N   N5        1.0  0.93408  0.41629  0.12744  1.0000
  N   N6        1.0  0.06592  0.08371  0.62745  1.0000
  N   N7        1.0  0.06592  0.58371  0.87256  1.0000
  N   N8        1.0  0.93408  0.91629  0.37255  1.0000
  N   N9        1.0  0.50361  0.59685  0.86690  1.0000
  N   N10       1.0  0.49639  0.90315  0.36690  1.0000
  N   N11       1.0  0.49639  0.40315  0.13311  1.0000
  N   N12       1.0  0.50361  0.09685  0.63310  1.0000
  N   N13       1.0  0.42553  0.48923  0.80565  1.0000
  N   N14       1.0  0.57447  0.01077  0.30565  1.0000
  N   N15       1.0  0.57447  0.51077  0.19435  1.0000
  N   N16       1.0  0.42553  0.98923  0.69434  1.0000
  N   N17       1.0  0.34798  0.37699  0.74694  1.0000
  N   N18       1.0  0.65202  0.12301  0.24694  1.0000
  N   N19       1.0  0.65203  0.62301  0.25306  1.0000
  N   N20       1.0  0.34798  0.87699  0.75306  1.0000
  N   N21       1.0  0.64185  0.92852  0.01567  1.0000
  N   N22       1.0  0.35815  0.57148  0.51567  1.0000
  N   N23       1.0  0.35815  0.07148  0.98433  1.0000
  N   N24       1.0  0.64185  0.42852  0.48433  1.0000
  N   N25       1.0  0.76238  0.86433  0.02507  1.0000
  N   N26       1.0  0.23762  0.63566  0.52507  1.0000
  N   N27       1.0  0.23762  0.13567  0.97493  1.0000
  N   N28       1.0  0.76238  0.36433  0.47493  1.0000
  N   N29       1.0  0.87855  0.80239  0.03368  1.0000
  N   N30       1.0  0.12144  0.69761  0.53368  1.0000
  N   N31       1.0  0.12145  0.19761  0.96632  1.0000
  N   N32       1.0  0.87856  0.30239  0.46632  1.0000
