data_image0
_chemical_formula_structural       Cu8H32C40S4I8N8
_chemical_formula_sum              "Cu8 H32 C40 S4 I8 N8"
_cell_length_a       7.80209
_cell_length_b       10.3106
_cell_length_c       18.0593
_cell_angle_alpha    89.9998
_cell_angle_beta     93.3367
_cell_angle_gamma    89.9998

_space_group_name_H-M_alt    "P 1"
_space_group_IT_number       1

loop_
  _space_group_symop_operation_xyz
  'x, y, z'

loop_
  _atom_site_type_symbol
  _atom_site_label
  _atom_site_symmetry_multiplicity
  _atom_site_fract_x
  _atom_site_fract_y
  _atom_site_fract_z
  _atom_site_occupancy
  Cu  Cu1       1.0  0.84710  0.35166  0.81163  1.0000
  Cu  Cu2       1.0  0.65289  0.35167  0.68837  1.0000
  Cu  Cu3       1.0  0.15291  0.64834  0.18837  1.0000
  Cu  Cu4       1.0  0.34711  0.64833  0.31163  1.0000
  Cu  Cu5       1.0  0.61123  0.51667  0.78723  1.0000
  Cu  Cu6       1.0  0.88876  0.51668  0.71278  1.0000
  Cu  Cu7       1.0  0.38876  0.48332  0.21278  1.0000
  Cu  Cu8       1.0  0.11124  0.48333  0.28722  1.0000
  H   H1        1.0  0.42247  0.49521  0.92454  1.0000
  H   H2        1.0  0.07752  0.49521  0.57546  1.0000
  H   H3        1.0  0.57752  0.50479  0.07546  1.0000
  H   H4        1.0  0.92247  0.50479  0.42454  1.0000
  H   H5        1.0  0.30449  0.64994  0.01576  1.0000
  H   H6        1.0  0.19551  0.64995  0.48425  1.0000
  H   H7        1.0  0.69550  0.35006  0.98424  1.0000
  H   H8        1.0  0.80449  0.35006  0.51576  1.0000
  H   H9        1.0  0.43364  0.96141  0.86783  1.0000
  H   H10       1.0  0.06636  0.96142  0.63217  1.0000
  H   H11       1.0  0.56637  0.03858  0.13217  1.0000
  H   H12       1.0  0.93363  0.03859  0.36783  1.0000
  H   H13       1.0  0.54193  0.79321  0.78298  1.0000
  H   H14       1.0  0.95806  0.79322  0.71701  1.0000
  H   H15       1.0  0.45807  0.20678  0.21701  1.0000
  H   H16       1.0  0.04193  0.20679  0.28298  1.0000
  H   H17       1.0  0.24478  0.20663  0.02964  1.0000
  H   H18       1.0  0.25521  0.20663  0.47036  1.0000
  H   H19       1.0  0.75522  0.79337  0.97036  1.0000
  H   H20       1.0  0.74478  0.79337  0.52964  1.0000
  H   H21       1.0  0.07559  0.36416  0.95071  1.0000
  H   H22       1.0  0.42440  0.36416  0.54929  1.0000
  H   H23       1.0  0.92442  0.63585  0.04929  1.0000
  H   H24       1.0  0.57560  0.63584  0.45071  1.0000
  H   H25       1.0  0.92133  0.07916  0.79959  1.0000
  H   H26       1.0  0.57868  0.07915  0.70040  1.0000
  H   H27       1.0  0.07868  0.92084  0.20041  1.0000
  H   H28       1.0  0.42133  0.92084  0.29959  1.0000
  H   H29       1.0  0.07943  0.90777  0.87213  1.0000
  H   H30       1.0  0.42058  0.90777  0.62787  1.0000
  H   H31       1.0  0.92057  0.09223  0.12788  1.0000
  H   H32       1.0  0.57943  0.09224  0.37212  1.0000
  C   C1        1.0  0.42282  0.59964  0.91472  1.0000
  C   C2        1.0  0.07716  0.59965  0.58529  1.0000
  C   C3        1.0  0.57716  0.40036  0.08529  1.0000
  C   C4        1.0  0.92283  0.40036  0.41471  1.0000
  C   C5        1.0  0.35746  0.68577  0.96512  1.0000
  C   C6        1.0  0.14253  0.68577  0.53488  1.0000
  C   C7        1.0  0.64253  0.31423  0.03488  1.0000
  C   C8        1.0  0.85747  0.31423  0.46512  1.0000
  C   C9        1.0  0.36009  0.81858  0.94914  1.0000
  C   C10       1.0  0.13991  0.81858  0.55086  1.0000
  C   C11       1.0  0.63992  0.18142  0.05086  1.0000
  C   C12       1.0  0.86009  0.18143  0.44914  1.0000
  C   C13       1.0  0.42753  0.85909  0.88250  1.0000
  C   C14       1.0  0.07246  0.85910  0.61750  1.0000
  C   C15       1.0  0.57247  0.14090  0.11750  1.0000
  C   C16       1.0  0.92753  0.14091  0.38250  1.0000
  C   C17       1.0  0.48823  0.76612  0.83528  1.0000
  C   C18       1.0  0.01176  0.76613  0.66472  1.0000
  C   C19       1.0  0.51177  0.23388  0.16472  1.0000
  C   C20       1.0  0.98823  0.23387  0.33528  1.0000
  C   C21       1.0  0.17944  0.04361  0.95651  1.0000
  C   C22       1.0  0.32055  0.04361  0.54349  1.0000
  C   C23       1.0  0.82056  0.95639  0.04349  1.0000
  C   C24       1.0  0.67945  0.95639  0.45650  1.0000
  C   C25       1.0  0.17555  0.17353  0.97900  1.0000
  C   C26       1.0  0.32444  0.17353  0.52100  1.0000
  C   C27       1.0  0.82445  0.82647  0.02100  1.0000
  C   C28       1.0  0.67556  0.82647  0.47899  1.0000
  C   C29       1.0  0.08082  0.26194  0.93527  1.0000
  C   C30       1.0  0.41917  0.26194  0.56473  1.0000
  C   C31       1.0  0.91918  0.73806  0.06473  1.0000
  C   C32       1.0  0.58083  0.73806  0.43527  1.0000
  C   C33       1.0  0.99578  0.10299  0.85076  1.0000
  C   C34       1.0  0.50422  0.10299  0.64924  1.0000
  C   C35       1.0  0.00422  0.89701  0.14924  1.0000
  C   C36       1.0  0.49577  0.89700  0.35076  1.0000
  C   C37       1.0  0.08520  0.00815  0.89100  1.0000
  C   C38       1.0  0.41481  0.00815  0.60900  1.0000
  C   C39       1.0  0.91481  0.99185  0.10901  1.0000
  C   C40       1.0  0.58520  0.99185  0.39099  1.0000
  S   S1        1.0  0.28743  0.92930  0.01430  1.0000
  S   S2        1.0  0.21257  0.92930  0.48570  1.0000
  S   S3        1.0  0.71257  0.07070  0.98571  1.0000
  S   S4        1.0  0.78743  0.07070  0.51429  1.0000
  I   I1        1.0  0.94384  0.59242  0.85242  1.0000
  I   I2        1.0  0.55615  0.59244  0.64759  1.0000
  I   I3        1.0  0.05616  0.40757  0.14758  1.0000
  I   I4        1.0  0.44385  0.40756  0.35241  1.0000
  I   I5        1.0  0.52311  0.27689  0.82680  1.0000
  I   I6        1.0  0.97688  0.27689  0.67320  1.0000
  I   I7        1.0  0.47689  0.72311  0.17320  1.0000
  I   I8        1.0  0.02312  0.72311  0.32680  1.0000
  N   N1        1.0  0.48819  0.63803  0.85095  1.0000
  N   N2        1.0  0.01180  0.63804  0.64905  1.0000
  N   N3        1.0  0.51180  0.36196  0.14905  1.0000
  N   N4        1.0  0.98820  0.36196  0.35095  1.0000
  N   N5        1.0  0.99277  0.22862  0.87184  1.0000
  N   N6        1.0  0.50723  0.22862  0.62816  1.0000
  N   N7        1.0  0.00724  0.77138  0.12816  1.0000
  N   N8        1.0  0.49277  0.77138  0.37183  1.0000
