data_image0
_chemical_formula_structural       Cu6H16C20S2I6N4
_chemical_formula_sum              "Cu6 H16 C20 S2 I6 N4"
_cell_length_a       9.65173
_cell_length_b       9.91782
_cell_length_c       10.0408
_cell_angle_alpha    62.0517
_cell_angle_beta     62.056
_cell_angle_gamma    80.6968

_space_group_name_H-M_alt    "P 1"
_space_group_IT_number       1

loop_
  _space_group_symop_operation_xyz
  'x, y, z'

loop_
  _atom_site_type_symbol
  _atom_site_label
  _atom_site_symmetry_multiplicity
  _atom_site_fract_x
  _atom_site_fract_y
  _atom_site_fract_z
  _atom_site_occupancy
  Cu  Cu1       1.0  0.18006  0.54905  0.97612  1.0000
  Cu  Cu2       1.0  0.81994  0.45095  0.02388  1.0000
  Cu  Cu3       1.0  0.41672  0.61948  0.01282  1.0000
  Cu  Cu4       1.0  0.58328  0.38051  0.98718  1.0000
  Cu  Cu5       1.0  0.96747  0.14447  0.96987  1.0000
  Cu  Cu6       1.0  0.03254  0.85552  0.03013  1.0000
  H   H1        1.0  0.02480  0.12368  0.59579  1.0000
  H   H2        1.0  0.97520  0.87631  0.40421  1.0000
  H   H3        1.0  0.21277  0.35311  0.37680  1.0000
  H   H4        1.0  0.78723  0.64688  0.62320  1.0000
  H   H5        1.0  0.81906  0.60528  0.31127  1.0000
  H   H6        1.0  0.18094  0.39472  0.68873  1.0000
  H   H7        1.0  0.64747  0.36329  0.52639  1.0000
  H   H8        1.0  0.35253  0.63671  0.47361  1.0000
  H   H9        1.0  0.75563  0.04550  0.89287  1.0000
  H   H10       1.0  0.24436  0.95450  0.10713  1.0000
  H   H11       1.0  0.59268  0.79954  0.05971  1.0000
  H   H12       1.0  0.40732  0.20046  0.94029  1.0000
  H   H13       1.0  0.53192  0.85932  0.65291  1.0000
  H   H14       1.0  0.46808  0.14068  0.34709  1.0000
  H   H15       1.0  0.69286  0.11008  0.46743  1.0000
  H   H16       1.0  0.30714  0.88993  0.53257  1.0000
  C   C1        1.0  0.98734  0.23285  0.52703  1.0000
  C   C2        1.0  0.01266  0.76715  0.47297  1.0000
  C   C3        1.0  0.08861  0.36044  0.40677  1.0000
  C   C4        1.0  0.91139  0.63955  0.59324  1.0000
  C   C5        1.0  0.03311  0.49813  0.31906  1.0000
  C   C6        1.0  0.96690  0.50187  0.68094  1.0000
  C   C7        1.0  0.86918  0.50085  0.36998  1.0000
  C   C8        1.0  0.13083  0.49915  0.63002  1.0000
  C   C9        1.0  0.77295  0.36957  0.48790  1.0000
  C   C10       1.0  0.22705  0.63043  0.51210  1.0000
  C   C11       1.0  0.73386  0.09623  0.66831  1.0000
  C   C12       1.0  0.26613  0.90378  0.33169  1.0000
  C   C13       1.0  0.70701  0.00934  0.83519  1.0000
  C   C14       1.0  0.29299  0.99066  0.16481  1.0000
  C   C15       1.0  0.61547  0.87190  0.92871  1.0000
  C   C16       1.0  0.38453  0.12811  0.07129  1.0000
  C   C17       1.0  0.58096  0.90611  0.70204  1.0000
  C   C18       1.0  0.41904  0.09389  0.29796  1.0000
  C   C19       1.0  0.67033  0.04517  0.59909  1.0000
  C   C20       1.0  0.32967  0.95484  0.40091  1.0000
  S   S1        1.0  0.15995  0.65647  0.15102  1.0000
  S   S2        1.0  0.84005  0.34353  0.84898  1.0000
  I   I1        1.0  0.02272  0.27681  0.12932  1.0000
  I   I2        1.0  0.97729  0.72320  0.87068  1.0000
  I   I3        1.0  0.46465  0.53992  0.76701  1.0000
  I   I4        1.0  0.53535  0.46008  0.23299  1.0000
  I   I5        1.0  0.23388  0.08333  0.76991  1.0000
  I   I6        1.0  0.76612  0.91666  0.23009  1.0000
  N   N1        1.0  0.83161  0.23623  0.56358  1.0000
  N   N2        1.0  0.16839  0.76377  0.43642  1.0000
  N   N3        1.0  0.55326  0.81987  0.86461  1.0000
  N   N4        1.0  0.44674  0.18014  0.13539  1.0000
