data_image0
_chemical_formula_structural       Cu6H26C28S2I6N10
_chemical_formula_sum              "Cu6 H26 C28 S2 I6 N10"
_cell_length_a       9.23816
_cell_length_b       10.6264
_cell_length_c       11.085
_cell_angle_alpha    76.9556
_cell_angle_beta     86.1526
_cell_angle_gamma    69.6984

_space_group_name_H-M_alt    "P 1"
_space_group_IT_number       1

loop_
  _space_group_symop_operation_xyz
  'x, y, z'

loop_
  _atom_site_type_symbol
  _atom_site_label
  _atom_site_symmetry_multiplicity
  _atom_site_fract_x
  _atom_site_fract_y
  _atom_site_fract_z
  _atom_site_occupancy
  Cu  Cu1       1.0  0.41250  0.27808  0.76120  1.0000
  Cu  Cu2       1.0  0.58750  0.72192  0.23880  1.0000
  Cu  Cu3       1.0  0.10173  0.49492  0.58110  1.0000
  Cu  Cu4       1.0  0.89827  0.50508  0.41890  1.0000
  Cu  Cu5       1.0  0.21016  0.18576  0.68949  1.0000
  Cu  Cu6       1.0  0.78984  0.81423  0.31051  1.0000
  H   H1        1.0  0.46817  0.17079  0.03292  1.0000
  H   H2        1.0  0.53183  0.82920  0.96708  1.0000
  H   H3        1.0  0.60257  0.20627  0.20148  1.0000
  H   H4        1.0  0.39743  0.79373  0.79852  1.0000
  H   H5        1.0  0.74974  0.37421  0.14819  1.0000
  H   H6        1.0  0.25025  0.62579  0.85181  1.0000
  H   H7        1.0  0.77135  0.47929  0.92551  1.0000
  H   H8        1.0  0.22865  0.52072  0.07449  1.0000
  H   H9        1.0  0.73204  0.49141  0.71296  1.0000
  H   H10       1.0  0.26796  0.50859  0.28704  1.0000
  H   H11       1.0  0.70978  0.34115  0.68461  1.0000
  H   H12       1.0  0.29022  0.65885  0.31539  1.0000
  H   H13       1.0  0.52233  0.71782  0.61324  1.0000
  H   H14       1.0  0.47767  0.28218  0.38676  1.0000
  H   H15       1.0  0.08357  0.80819  0.49889  1.0000
  H   H16       1.0  0.91643  0.19181  0.50111  1.0000
  H   H17       1.0  0.23704  0.83231  0.40158  1.0000
  H   H18       1.0  0.76296  0.16769  0.59842  1.0000
  H   H19       1.0  0.02675  0.78099  0.68307  1.0000
  H   H20       1.0  0.97325  0.21901  0.31693  1.0000
  H   H21       1.0  0.84854  0.81673  0.85850  1.0000
  H   H22       1.0  0.15147  0.18327  0.14150  1.0000
  H   H23       1.0  0.81287  0.01979  0.95381  1.0000
  H   H24       1.0  0.18714  0.98021  0.04619  1.0000
  H   H25       1.0  0.97083  0.16994  0.87333  1.0000
  H   H26       1.0  0.02917  0.83006  0.12667  1.0000
  C   C1        1.0  0.53622  0.23882  0.01249  1.0000
  C   C2        1.0  0.46378  0.76118  0.98751  1.0000
  C   C3        1.0  0.61032  0.26086  0.10685  1.0000
  C   C4        1.0  0.38968  0.73914  0.89315  1.0000
  C   C5        1.0  0.69314  0.35103  0.07706  1.0000
  C   C6        1.0  0.30685  0.64897  0.92294  1.0000
  C   C7        1.0  0.70460  0.41086  0.95287  1.0000
  C   C8        1.0  0.29539  0.58914  0.04712  1.0000
  C   C9        1.0  0.63222  0.37944  0.86309  1.0000
  C   C10       1.0  0.36778  0.62056  0.13691  1.0000
  C   C11       1.0  0.65584  0.43012  0.72712  1.0000
  C   C12       1.0  0.34416  0.56987  0.27288  1.0000
  C   C13       1.0  0.45645  0.65106  0.61329  1.0000
  C   C14       1.0  0.54355  0.34894  0.38672  1.0000
  C   C15       1.0  0.31147  0.67658  0.56637  1.0000
  C   C16       1.0  0.68853  0.32343  0.43363  1.0000
  C   C17       1.0  0.20199  0.80942  0.49883  1.0000
  C   C18       1.0  0.79801  0.19058  0.50118  1.0000
  C   C19       1.0  0.09133  0.95916  0.68287  1.0000
  C   C20       1.0  0.90868  0.04084  0.31713  1.0000
  C   C21       1.0  0.01257  0.86657  0.72643  1.0000
  C   C22       1.0  0.98743  0.13343  0.27357  1.0000
  C   C23       1.0  0.91156  0.88715  0.82444  1.0000
  C   C24       1.0  0.08844  0.11285  0.17556  1.0000
  C   C25       1.0  0.89217  0.99902  0.87786  1.0000
  C   C26       1.0  0.10783  0.00098  0.12214  1.0000
  C   C27       1.0  0.97818  0.08338  0.83283  1.0000
  C   C28       1.0  0.02182  0.91662  0.16717  1.0000
  S   S1        1.0  0.21055  0.95571  0.55304  1.0000
  S   S2        1.0  0.78945  0.04429  0.44696  1.0000
  I   I1        1.0  0.50890  0.04336  0.70643  1.0000
  I   I2        1.0  0.49110  0.95664  0.29357  1.0000
  I   I3        1.0  0.11703  0.37238  0.83394  1.0000
  I   I4        1.0  0.88296  0.62762  0.16606  1.0000
  I   I5        1.0  0.16314  0.30986  0.44765  1.0000
  I   I6        1.0  0.83686  0.69014  0.55235  1.0000
  N   N1        1.0  0.54556  0.29744  0.89233  1.0000
  N   N2        1.0  0.45444  0.70256  0.10766  1.0000
  N   N3        1.0  0.51240  0.51393  0.65977  1.0000
  N   N4        1.0  0.48760  0.48607  0.34023  1.0000
  N   N5        1.0  0.40961  0.45473  0.64398  1.0000
  N   N6        1.0  0.59039  0.54527  0.35602  1.0000
  N   N7        1.0  0.28616  0.55395  0.58746  1.0000
  N   N8        1.0  0.71383  0.44605  0.41254  1.0000
  N   N9        1.0  0.07730  0.06525  0.73759  1.0000
  N   N10       1.0  0.92270  0.93475  0.26241  1.0000
