data_image0
_chemical_formula_structural       Cu2H30C38N8O8
_chemical_formula_sum              "Cu2 H30 C38 N8 O8"
_cell_length_a       8.27894
_cell_length_b       11.164
_cell_length_c       11.164
_cell_angle_alpha    100.063
_cell_angle_beta     109.986
_cell_angle_gamma    109.987

_space_group_name_H-M_alt    "P 1"
_space_group_IT_number       1

loop_
  _space_group_symop_operation_xyz
  'x, y, z'

loop_
  _atom_site_type_symbol
  _atom_site_label
  _atom_site_symmetry_multiplicity
  _atom_site_fract_x
  _atom_site_fract_y
  _atom_site_fract_z
  _atom_site_occupancy
  Cu  Cu1       1.0  0.00000  0.50000  0.00000  1.0000
  Cu  Cu2       1.0  0.00000  1.00000  0.50000  1.0000
  H   H1        1.0  0.83813  0.67015  0.14223  1.0000
  H   H2        1.0  0.16188  0.85777  0.32985  1.0000
  H   H3        1.0  0.16187  0.32985  0.85777  1.0000
  H   H4        1.0  0.83812  0.14223  0.67015  1.0000
  H   H5        1.0  0.63772  0.44941  0.73147  1.0000
  H   H6        1.0  0.36229  0.26853  0.55059  1.0000
  H   H7        1.0  0.36228  0.55059  0.26853  1.0000
  H   H8        1.0  0.63771  0.73147  0.44941  1.0000
  H   H9        1.0  0.39691  0.56654  0.75611  1.0000
  H   H10       1.0  0.60310  0.24389  0.43346  1.0000
  H   H11       1.0  0.60309  0.43346  0.24389  1.0000
  H   H12       1.0  0.39690  0.75611  0.56654  1.0000
  H   H13       1.0  0.58388  0.74171  0.13395  1.0000
  H   H14       1.0  0.41612  0.86605  0.25829  1.0000
  H   H15       1.0  0.41612  0.25829  0.86605  1.0000
  H   H16       1.0  0.58388  0.13395  0.74171  1.0000
  H   H17       1.0  0.38156  0.69103  0.97643  1.0000
  H   H18       1.0  0.61845  0.02357  0.30897  1.0000
  H   H19       1.0  0.61845  0.30897  0.02357  1.0000
  H   H20       1.0  0.38155  0.97643  0.69103  1.0000
  H   H21       1.0  0.39858  0.81721  0.81722  1.0000
  H   H22       1.0  0.60142  0.18279  0.18278  1.0000
  H   H23       1.0  0.87412  0.95355  0.20535  1.0000
  H   H24       1.0  0.12588  0.79465  0.04644  1.0000
  H   H25       1.0  0.12588  0.04644  0.79465  1.0000
  H   H26       1.0  0.87411  0.20536  0.95356  1.0000
  H   H27       1.0  0.03056  0.16850  0.16850  1.0000
  H   H28       1.0  0.96944  0.83150  0.83150  1.0000
  H   H29       1.0  0.97363  0.66410  0.66410  1.0000
  H   H30       1.0  0.02636  0.33590  0.33590  1.0000
  C   C1        1.0  0.75652  0.62674  0.03332  1.0000
  C   C2        1.0  0.24347  0.96668  0.37326  1.0000
  C   C3        1.0  0.24347  0.37326  0.96668  1.0000
  C   C4        1.0  0.75653  0.03332  0.62674  1.0000
  C   C5        1.0  0.64617  0.51533  0.81918  1.0000
  C   C6        1.0  0.35384  0.18081  0.48467  1.0000
  C   C7        1.0  0.35383  0.48467  0.18081  1.0000
  C   C8        1.0  0.64616  0.81919  0.51533  1.0000
  C   C9        1.0  0.52698  0.57263  0.83031  1.0000
  C   C10       1.0  0.47302  0.16969  0.42737  1.0000
  C   C11       1.0  0.47301  0.42737  0.16969  1.0000
  C   C12       1.0  0.52698  0.83031  0.57263  1.0000
  C   C13       1.0  0.53781  0.73543  0.02760  1.0000
  C   C14       1.0  0.46219  0.97240  0.26457  1.0000
  C   C15       1.0  0.46219  0.26457  0.97240  1.0000
  C   C16       1.0  0.53781  0.02760  0.73543  1.0000
  C   C17       1.0  0.53912  0.89339  0.89339  1.0000
  C   C18       1.0  0.46089  0.10661  0.10661  1.0000
  C   C19       1.0  0.62748  0.87092  0.01270  1.0000
  C   C20       1.0  0.37252  0.98730  0.12908  1.0000
  C   C21       1.0  0.37252  0.12908  0.98730  1.0000
  C   C22       1.0  0.62748  0.01270  0.87092  1.0000
  C   C23       1.0  0.80457  0.97059  0.11191  1.0000
  C   C24       1.0  0.19543  0.88809  0.02941  1.0000
  C   C25       1.0  0.19543  0.02941  0.88809  1.0000
  C   C26       1.0  0.80457  0.11191  0.97059  1.0000
  C   C27       1.0  0.89210  0.09127  0.09127  1.0000
  C   C28       1.0  0.10790  0.90873  0.90873  1.0000
  C   C29       1.0  0.96687  0.44897  0.74017  1.0000
  C   C30       1.0  0.03314  0.25983  0.55104  1.0000
  C   C31       1.0  0.03313  0.55103  0.25983  1.0000
  C   C32       1.0  0.96686  0.74017  0.44896  1.0000
  C   C33       1.0  0.99228  0.47515  0.61818  1.0000
  C   C34       1.0  0.00772  0.38182  0.52485  1.0000
  C   C35       1.0  0.00772  0.52485  0.38181  1.0000
  C   C36       1.0  0.99227  0.61818  0.47515  1.0000
  C   C37       1.0  0.98631  0.59223  0.59223  1.0000
  C   C38       1.0  0.01369  0.40777  0.40777  1.0000
  N   N1        1.0  0.78849  0.54982  0.94672  1.0000
  N   N2        1.0  0.21151  0.05328  0.45018  1.0000
  N   N3        1.0  0.21151  0.45018  0.05328  1.0000
  N   N4        1.0  0.78849  0.94672  0.54982  1.0000
  N   N5        1.0  0.59882  0.64201  0.96606  1.0000
  N   N6        1.0  0.40118  0.03394  0.35799  1.0000
  N   N7        1.0  0.40118  0.35800  0.03394  1.0000
  N   N8        1.0  0.59882  0.96606  0.64201  1.0000
  O   O1        1.0  0.06333  0.55161  0.85000  1.0000
  O   O2        1.0  0.93668  0.15000  0.44839  1.0000
  O   O3        1.0  0.93667  0.44839  0.15000  1.0000
  O   O4        1.0  0.06332  0.85000  0.55161  1.0000
  O   O5        1.0  0.85180  0.33506  0.72892  1.0000
  O   O6        1.0  0.14820  0.27109  0.66495  1.0000
  O   O7        1.0  0.14820  0.66494  0.27108  1.0000
  O   O8        1.0  0.85180  0.72891  0.33506  1.0000
