data_image0
_chemical_formula_structural       Mg2H20C24
_chemical_formula_sum              "Mg2 H20 C24"
_cell_length_a       5.56789
_cell_length_b       9.41247
_cell_length_c       10.7058
_cell_angle_alpha    116.072
_cell_angle_beta     105.075
_cell_angle_gamma    90.0122

_space_group_name_H-M_alt    "P 1"
_space_group_IT_number       1

loop_
  _space_group_symop_operation_xyz
  'x, y, z'

loop_
  _atom_site_type_symbol
  _atom_site_label
  _atom_site_symmetry_multiplicity
  _atom_site_fract_x
  _atom_site_fract_y
  _atom_site_fract_z
  _atom_site_occupancy
  Mg  Mg1       1.0  0.74998  0.50003  0.49999  1.0000
  Mg  Mg2       1.0  0.25000  0.49997  0.50000  1.0000
  H   H1        1.0  0.99340  0.80526  0.48697  1.0000
  H   H2        1.0  0.49337  0.18156  0.48697  1.0000
  H   H3        1.0  0.00658  0.19474  0.51304  1.0000
  H   H4        1.0  0.50661  0.81844  0.51303  1.0000
  H   H5        1.0  0.08693  0.08618  0.67353  1.0000
  H   H6        1.0  0.58713  0.08744  0.67371  1.0000
  H   H7        1.0  0.91307  0.91382  0.32649  1.0000
  H   H8        1.0  0.41288  0.91257  0.32629  1.0000
  H   H9        1.0  0.21831  0.15344  0.93585  1.0000
  H   H10       1.0  0.71847  0.28261  0.93597  1.0000
  H   H11       1.0  0.78172  0.84655  0.06416  1.0000
  H   H12       1.0  0.28154  0.71740  0.06403  1.0000
  H   H13       1.0  0.25506  0.93667  0.00977  1.0000
  H   H14       1.0  0.75501  0.57333  0.00968  1.0000
  H   H15       1.0  0.74497  0.06331  0.99023  1.0000
  H   H16       1.0  0.24500  0.42668  0.99032  1.0000
  H   H17       1.0  0.16219  0.65455  0.82389  1.0000
  H   H18       1.0  0.66163  0.66930  0.82354  1.0000
  H   H19       1.0  0.83781  0.34544  0.17610  1.0000
  H   H20       1.0  0.33835  0.33070  0.17646  1.0000
  C   C1        1.0  0.06902  0.70309  0.63761  1.0000
  C   C2        1.0  0.56877  0.43439  0.63747  1.0000
  C   C3        1.0  0.93097  0.29690  0.36239  1.0000
  C   C4        1.0  0.43122  0.56562  0.36252  1.0000
  C   C5        1.0  0.05069  0.83116  0.60139  1.0000
  C   C6        1.0  0.55075  0.27013  0.60137  1.0000
  C   C7        1.0  0.94930  0.16885  0.39863  1.0000
  C   C8        1.0  0.44925  0.72987  0.39863  1.0000
  C   C9        1.0  0.10316  0.99105  0.70613  1.0000
  C   C10       1.0  0.60331  0.21511  0.70623  1.0000
  C   C11       1.0  0.89682  0.00894  0.29387  1.0000
  C   C12       1.0  0.39669  0.78490  0.29376  1.0000
  C   C13       1.0  0.17699  0.02900  0.85335  1.0000
  C   C14       1.0  0.67698  0.32452  0.85342  1.0000
  C   C15       1.0  0.82303  0.97099  0.14666  1.0000
  C   C16       1.0  0.32302  0.67549  0.14657  1.0000
  C   C17       1.0  0.19754  0.90684  0.89469  1.0000
  C   C18       1.0  0.69740  0.48798  0.89463  1.0000
  C   C19       1.0  0.80248  0.09314  0.10530  1.0000
  C   C20       1.0  0.30259  0.51203  0.10537  1.0000
  C   C21       1.0  0.14436  0.74771  0.78837  1.0000
  C   C22       1.0  0.64407  0.54065  0.78820  1.0000
  C   C23       1.0  0.85565  0.25228  0.21164  1.0000
  C   C24       1.0  0.35593  0.45935  0.21180  1.0000
