data_image0
_chemical_formula_structural       Cu4H24C24S16I4N8O8
_chemical_formula_sum              "Cu4 H24 C24 S16 I4 N8 O8"
_cell_length_a       4.16015
_cell_length_b       16.827
_cell_length_c       17.3757
_cell_angle_alpha    90.0008
_cell_angle_beta     90
_cell_angle_gamma    95.2914

_space_group_name_H-M_alt    "P 1"
_space_group_IT_number       1

loop_
  _space_group_symop_operation_xyz
  'x, y, z'

loop_
  _atom_site_type_symbol
  _atom_site_label
  _atom_site_symmetry_multiplicity
  _atom_site_fract_x
  _atom_site_fract_y
  _atom_site_fract_z
  _atom_site_occupancy
  Cu  Cu1       1.0  0.13403  0.87835  0.91699  1.0000
  Cu  Cu2       1.0  0.86599  0.62165  0.41700  1.0000
  Cu  Cu3       1.0  0.86599  0.12165  0.08301  1.0000
  Cu  Cu4       1.0  0.13402  0.37835  0.58301  1.0000
  H   H1        1.0  0.71383  0.73181  0.94019  1.0000
  H   H2        1.0  0.28619  0.76819  0.44020  1.0000
  H   H3        1.0  0.28617  0.26819  0.05980  1.0000
  H   H4        1.0  0.71382  0.23181  0.55980  1.0000
  H   H5        1.0  0.89983  0.95459  0.78956  1.0000
  H   H6        1.0  0.10020  0.54541  0.28955  1.0000
  H   H7        1.0  0.10021  0.04541  0.21045  1.0000
  H   H8        1.0  0.89982  0.45459  0.71044  1.0000
  H   H9        1.0  0.56105  0.57063  0.11821  1.0000
  H   H10       1.0  0.43890  0.92937  0.61821  1.0000
  H   H11       1.0  0.43891  0.42937  0.88179  1.0000
  H   H12       1.0  0.56108  0.07063  0.38179  1.0000
  H   H13       1.0  0.89423  0.54393  0.06285  1.0000
  H   H14       1.0  0.10575  0.95607  0.56285  1.0000
  H   H15       1.0  0.10576  0.45607  0.93715  1.0000
  H   H16       1.0  0.89425  0.04392  0.43715  1.0000
  H   H17       1.0  0.98511  0.17913  0.70121  1.0000
  H   H18       1.0  0.01488  0.32087  0.20121  1.0000
  H   H19       1.0  0.01488  0.82087  0.29880  1.0000
  H   H20       1.0  0.98510  0.67913  0.79879  1.0000
  H   H21       1.0  0.30979  0.13182  0.65899  1.0000
  H   H22       1.0  0.69023  0.36818  0.15899  1.0000
  H   H23       1.0  0.69022  0.86818  0.34101  1.0000
  H   H24       1.0  0.30976  0.63182  0.84101  1.0000
  C   C1        1.0  0.98022  0.73521  0.04134  1.0000
  C   C2        1.0  0.01978  0.76479  0.54135  1.0000
  C   C3        1.0  0.01976  0.26479  0.95865  1.0000
  C   C4        1.0  0.98020  0.23521  0.45866  1.0000
  C   C5        1.0  0.75201  0.59350  0.07840  1.0000
  C   C6        1.0  0.24796  0.90650  0.57840  1.0000
  C   C7        1.0  0.24796  0.40650  0.92160  1.0000
  C   C8        1.0  0.75204  0.09350  0.42160  1.0000
  C   C9        1.0  0.61143  0.62635  0.00606  1.0000
  C   C10       1.0  0.38860  0.87365  0.50607  1.0000
  C   C11       1.0  0.38856  0.37365  0.99394  1.0000
  C   C12       1.0  0.61142  0.12634  0.49394  1.0000
  C   C13       1.0  0.21262  0.04861  0.83122  1.0000
  C   C14       1.0  0.78739  0.45139  0.33122  1.0000
  C   C15       1.0  0.78739  0.95139  0.16878  1.0000
  C   C16       1.0  0.21261  0.54860  0.66878  1.0000
  C   C17       1.0  0.14452  0.13100  0.70853  1.0000
  C   C18       1.0  0.85549  0.36900  0.20853  1.0000
  C   C19       1.0  0.85551  0.86900  0.29147  1.0000
  C   C20       1.0  0.14452  0.63101  0.79146  1.0000
  C   C21       1.0  0.95048  0.05077  0.71086  1.0000
  C   C22       1.0  0.04955  0.44923  0.21086  1.0000
  C   C23       1.0  0.04954  0.94923  0.28914  1.0000
  C   C24       1.0  0.95045  0.55077  0.78913  1.0000
  S   S1        1.0  0.17928  0.82514  0.03399  1.0000
  S   S2        1.0  0.82073  0.67486  0.53400  1.0000
  S   S3        1.0  0.82073  0.17486  0.96600  1.0000
  S   S4        1.0  0.17927  0.32514  0.46600  1.0000
  S   S5        1.0  0.01074  0.67421  0.12111  1.0000
  S   S6        1.0  0.98924  0.82580  0.62112  1.0000
  S   S7        1.0  0.98923  0.32579  0.87888  1.0000
  S   S8        1.0  0.01075  0.17420  0.37889  1.0000
  S   S9        1.0  0.29534  0.00991  0.91599  1.0000
  S   S10       1.0  0.70469  0.49009  0.41599  1.0000
  S   S11       1.0  0.70468  0.99010  0.08401  1.0000
  S   S12       1.0  0.29536  0.50991  0.58402  1.0000
  S   S13       1.0  0.36133  0.14317  0.79890  1.0000
  S   S14       1.0  0.63868  0.35683  0.29889  1.0000
  S   S15       1.0  0.63869  0.85683  0.20111  1.0000
  S   S16       1.0  0.36133  0.64316  0.70110  1.0000
  I   I1        1.0  0.62654  0.82368  0.83059  1.0000
  I   I2        1.0  0.37346  0.67632  0.33060  1.0000
  I   I3        1.0  0.37346  0.17632  0.16940  1.0000
  I   I4        1.0  0.62656  0.32367  0.66940  1.0000
  N   N1        1.0  0.77174  0.70016  0.98842  1.0000
  N   N2        1.0  0.22824  0.79984  0.48843  1.0000
  N   N3        1.0  0.22825  0.29984  0.01158  1.0000
  N   N4        1.0  0.77175  0.20016  0.51158  1.0000
  N   N5        1.0  0.01440  0.01048  0.77757  1.0000
  N   N6        1.0  0.98561  0.48952  0.27756  1.0000
  N   N7        1.0  0.98562  0.98952  0.22243  1.0000
  N   N8        1.0  0.01439  0.51048  0.72243  1.0000
  O   O1        1.0  0.39016  0.59421  0.96738  1.0000
  O   O2        1.0  0.60979  0.90579  0.46739  1.0000
  O   O3        1.0  0.60980  0.40579  0.03261  1.0000
  O   O4        1.0  0.39019  0.09421  0.53262  1.0000
  O   O5        1.0  0.76445  0.02353  0.66066  1.0000
  O   O6        1.0  0.23557  0.47647  0.16066  1.0000
  O   O7        1.0  0.23557  0.97647  0.33935  1.0000
  O   O8        1.0  0.76441  0.52353  0.83933  1.0000
