data_image0
_chemical_formula_structural       Mn2H30C48N4O10
_chemical_formula_sum              "Mn2 H30 C48 N4 O10"
_cell_length_a       9.33647
_cell_length_b       10.0662
_cell_length_c       11.89
_cell_angle_alpha    112.64
_cell_angle_beta     89.9996
_cell_angle_gamma    90.0008

_space_group_name_H-M_alt    "P 1"
_space_group_IT_number       1

loop_
  _space_group_symop_operation_xyz
  'x, y, z'

loop_
  _atom_site_type_symbol
  _atom_site_label
  _atom_site_symmetry_multiplicity
  _atom_site_fract_x
  _atom_site_fract_y
  _atom_site_fract_z
  _atom_site_occupancy
  Mn  Mn1       1.0  0.04283  0.07404  0.86317  1.0000
  Mn  Mn2       1.0  0.04283  0.92597  0.13683  1.0000
  H   H1        1.0  0.95269  0.87719  0.58286  1.0000
  H   H2        1.0  0.95269  0.12279  0.41714  1.0000
  H   H3        1.0  0.07707  0.75190  0.38134  1.0000
  H   H4        1.0  0.07706  0.24808  0.61866  1.0000
  H   H5        1.0  0.34363  0.75206  0.37407  1.0000
  H   H6        1.0  0.34363  0.24794  0.62593  1.0000
  H   H7        1.0  0.57736  0.83552  0.48785  1.0000
  H   H8        1.0  0.57736  0.16448  0.51215  1.0000
  H   H9        1.0  0.70486  0.97535  0.68280  1.0000
  H   H10       1.0  0.70485  0.02465  0.31721  1.0000
  H   H11       1.0  0.69342  0.13001  0.90401  1.0000
  H   H12       1.0  0.69342  0.86999  0.09600  1.0000
  H   H13       1.0  0.27322  0.21845  0.07242  1.0000
  H   H14       1.0  0.27322  0.78153  0.92758  1.0000
  H   H15       1.0  0.02627  0.57010  0.90025  1.0000
  H   H16       1.0  0.02627  0.42992  0.09976  1.0000
  H   H17       1.0  0.69122  0.72919  0.73765  1.0000
  H   H18       1.0  0.69122  0.27081  0.26235  1.0000
  H   H19       1.0  0.68726  0.28472  0.70581  1.0000
  H   H20       1.0  0.68727  0.71528  0.29419  1.0000
  H   H21       1.0  0.55031  0.62785  0.57901  1.0000
  H   H22       1.0  0.55031  0.37215  0.42098  1.0000
  H   H23       1.0  0.45482  0.67922  0.71894  1.0000
  H   H24       1.0  0.45482  0.32078  0.28105  1.0000
  H   H25       1.0  0.20716  0.63838  0.72375  1.0000
  H   H26       1.0  0.20716  0.36161  0.27625  1.0000
  H   H27       1.0  0.97708  0.56809  0.61230  1.0000
  H   H28       1.0  0.97708  0.43190  0.38770  1.0000
  H   H29       1.0  0.54192  0.25181  0.08984  1.0000
  H   H30       1.0  0.54193  0.74818  0.91017  1.0000
  C   C1        1.0  0.06932  0.87673  0.57602  1.0000
  C   C2        1.0  0.06933  0.12326  0.42398  1.0000
  C   C3        1.0  0.13903  0.80649  0.46375  1.0000
  C   C4        1.0  0.13903  0.19350  0.53625  1.0000
  C   C5        1.0  0.28691  0.80707  0.45964  1.0000
  C   C6        1.0  0.28691  0.19293  0.54036  1.0000
  C   C7        1.0  0.36497  0.87953  0.56790  1.0000
  C   C8        1.0  0.36497  0.12047  0.43210  1.0000
  C   C9        1.0  0.51816  0.88949  0.57229  1.0000
  C   C10       1.0  0.51816  0.11050  0.42770  1.0000
  C   C11       1.0  0.58850  0.96530  0.67874  1.0000
  C   C12       1.0  0.58850  0.03471  0.32127  1.0000
  C   C13       1.0  0.51051  0.03627  0.78967  1.0000
  C   C14       1.0  0.51050  0.96373  0.21033  1.0000
  C   C15       1.0  0.57736  0.11872  0.90141  1.0000
  C   C16       1.0  0.57737  0.88128  0.09860  1.0000
  C   C17       1.0  0.34381  0.16844  0.99430  1.0000
  C   C18       1.0  0.34382  0.83155  0.00570  1.0000
  C   C19       1.0  0.35888  0.02612  0.78891  1.0000
  C   C20       1.0  0.35889  0.97389  0.21109  1.0000
  C   C21       1.0  0.28510  0.94795  0.67652  1.0000
  C   C22       1.0  0.28510  0.05205  0.32347  1.0000
  C   C23       1.0  0.94077  0.29304  0.82040  1.0000
  C   C24       1.0  0.94077  0.70696  0.17960  1.0000
  C   C25       1.0  0.86585  0.41463  0.80161  1.0000
  C   C26       1.0  0.86584  0.58538  0.19839  1.0000
  C   C27       1.0  0.92756  0.55197  0.84777  1.0000
  C   C28       1.0  0.92756  0.44804  0.15223  1.0000
  C   C29       1.0  0.86249  0.66398  0.82508  1.0000
  C   C30       1.0  0.86249  0.33603  0.17493  1.0000
  C   C31       1.0  0.73558  0.63985  0.75639  1.0000
  C   C32       1.0  0.73558  0.36016  0.24361  1.0000
  C   C33       1.0  0.67072  0.50395  0.71557  1.0000
  C   C34       1.0  0.67072  0.49605  0.28444  1.0000
  C   C35       1.0  0.73656  0.39104  0.73771  1.0000
  C   C36       1.0  0.73656  0.60897  0.26229  1.0000
  C   C37       1.0  0.93206  0.80887  0.86991  1.0000
  C   C38       1.0  0.93206  0.19114  0.13009  1.0000
  C   C39       1.0  0.47582  0.58921  0.63150  1.0000
  C   C40       1.0  0.47581  0.41079  0.36850  1.0000
  C   C41       1.0  0.33784  0.53972  0.56345  1.0000
  C   C42       1.0  0.33784  0.46027  0.43655  1.0000
  C   C43       1.0  0.20749  0.57732  0.62541  1.0000
  C   C44       1.0  0.20748  0.42267  0.37459  1.0000
  C   C45       1.0  0.07786  0.53835  0.56285  1.0000
  C   C46       1.0  0.07786  0.46164  0.43714  1.0000
  C   C47       1.0  0.49310  0.18567  0.00319  1.0000
  C   C48       1.0  0.49310  0.81431  0.99680  1.0000
  N   N1        1.0  0.13966  0.94550  0.67960  1.0000
  N   N2        1.0  0.13966  0.05450  0.32039  1.0000
  N   N3        1.0  0.27807  0.09033  0.89041  1.0000
  N   N4        1.0  0.27807  0.90966  0.10958  1.0000
  O   O1        1.0  0.89034  0.90191  0.82838  1.0000
  O   O2        1.0  0.89034  0.09810  0.17162  1.0000
  O   O3        1.0  0.03493  0.83211  0.94627  1.0000
  O   O4        1.0  0.03492  0.16790  0.05373  1.0000
  O   O5        1.0  0.07046  0.30687  0.85420  1.0000
  O   O6        1.0  0.07044  0.69314  0.14578  1.0000
  O   O7        1.0  0.87128  0.17549  0.80027  1.0000
  O   O8        1.0  0.87127  0.82452  0.19975  1.0000
  O   O9        1.0  0.54243  0.47211  0.65424  1.0000
  O   O10       1.0  0.54243  0.52790  0.34576  1.0000
