data_image0
_chemical_formula_structural       Cd2H30C40N10O10
_chemical_formula_sum              "Cd2 H30 C40 N10 O10"
_cell_length_a       9.52942
_cell_length_b       9.79259
_cell_length_c       12.8753
_cell_angle_alpha    73.8819
_cell_angle_beta     79.4429
_cell_angle_gamma    65.737

_space_group_name_H-M_alt    "P 1"
_space_group_IT_number       1

loop_
  _space_group_symop_operation_xyz
  'x, y, z'

loop_
  _atom_site_type_symbol
  _atom_site_label
  _atom_site_symmetry_multiplicity
  _atom_site_fract_x
  _atom_site_fract_y
  _atom_site_fract_z
  _atom_site_occupancy
  Cd  Cd1       1.0  0.72978  0.38672  0.26375  1.0000
  Cd  Cd2       1.0  0.27023  0.61327  0.73625  1.0000
  H   H1        1.0  0.20815  0.88996  0.27805  1.0000
  H   H2        1.0  0.79185  0.11003  0.72194  1.0000
  H   H3        1.0  0.46385  0.77199  0.98280  1.0000
  H   H4        1.0  0.53615  0.22800  0.01719  1.0000
  H   H5        1.0  0.26829  0.00308  0.87505  1.0000
  H   H6        1.0  0.73172  0.99692  0.12495  1.0000
  H   H7        1.0  0.04381  0.18043  0.97447  1.0000
  H   H8        1.0  0.95620  0.81957  0.02553  1.0000
  H   H9        1.0  0.01976  0.28574  0.39621  1.0000
  H   H10       1.0  0.98023  0.71427  0.60380  1.0000
  H   H11       1.0  0.20181  0.64083  0.33063  1.0000
  H   H12       1.0  0.79820  0.35917  0.66937  1.0000
  H   H13       1.0  0.99981  0.80005  0.19930  1.0000
  H   H14       1.0  0.00020  0.19994  0.80070  1.0000
  H   H15       1.0  0.81293  0.69140  0.17416  1.0000
  H   H16       1.0  0.18708  0.30859  0.82584  1.0000
  H   H17       1.0  0.26168  0.93644  0.61087  1.0000
  H   H18       1.0  0.73831  0.06356  0.38913  1.0000
  H   H19       1.0  0.57311  0.60658  0.82749  1.0000
  H   H20       1.0  0.42688  0.39343  0.17251  1.0000
  H   H21       1.0  0.70509  0.78521  0.82091  1.0000
  H   H22       1.0  0.29490  0.21479  0.17909  1.0000
  H   H23       1.0  0.60977  0.04800  0.70166  1.0000
  H   H24       1.0  0.39022  0.95201  0.29835  1.0000
  H   H25       1.0  0.47007  0.30020  0.61696  1.0000
  H   H26       1.0  0.52992  0.69980  0.38304  1.0000
  H   H27       1.0  0.80152  0.23624  0.48663  1.0000
  H   H28       1.0  0.19847  0.76376  0.51337  1.0000
  H   H29       1.0  0.69737  0.41078  0.48761  1.0000
  H   H30       1.0  0.30263  0.58923  0.51240  1.0000
  C   C1        1.0  0.98184  0.15450  0.18818  1.0000
  C   C2        1.0  0.01816  0.84548  0.81182  1.0000
  C   C3        1.0  0.11484  0.04606  0.13104  1.0000
  C   C4        1.0  0.88518  0.95394  0.86895  1.0000
  C   C5        1.0  0.22327  0.91474  0.18981  1.0000
  C   C6        1.0  0.77673  0.08525  0.81019  1.0000
  C   C7        1.0  0.34958  0.81673  0.13628  1.0000
  C   C8        1.0  0.65042  0.18327  0.86372  1.0000
  C   C9        1.0  0.46924  0.67872  0.19915  1.0000
  C   C10       1.0  0.53076  0.32128  0.80085  1.0000
  C   C11       1.0  0.36503  0.84986  0.02271  1.0000
  C   C12       1.0  0.63498  0.15013  0.97729  1.0000
  C   C13       1.0  0.25584  0.97947  0.96344  1.0000
  C   C14       1.0  0.74417  0.02052  0.03656  1.0000
  C   C15       1.0  0.13148  0.07764  0.01737  1.0000
  C   C16       1.0  0.86853  0.92235  0.98262  1.0000
  C   C17       1.0  0.01616  0.40063  0.35584  1.0000
  C   C18       1.0  0.98383  0.59937  0.64416  1.0000
  C   C19       1.0  0.12229  0.45287  0.37696  1.0000
  C   C20       1.0  0.87771  0.54714  0.62305  1.0000
  C   C21       1.0  0.11708  0.59897  0.31923  1.0000
  C   C22       1.0  0.88292  0.40104  0.68077  1.0000
  C   C23       1.0  0.00563  0.68661  0.24546  1.0000
  C   C24       1.0  0.99438  0.31338  0.75453  1.0000
  C   C25       1.0  0.90230  0.62702  0.23107  1.0000
  C   C26       1.0  0.09770  0.37298  0.76893  1.0000
  C   C27       1.0  0.23229  0.35644  0.45834  1.0000
  C   C28       1.0  0.76770  0.64357  0.54167  1.0000
  C   C29       1.0  0.36302  0.16495  0.57440  1.0000
  C   C30       1.0  0.63698  0.83506  0.42560  1.0000
  C   C31       1.0  0.42787  0.01342  0.64563  1.0000
  C   C32       1.0  0.57212  0.98659  0.35438  1.0000
  C   C33       1.0  0.36185  0.90603  0.65454  1.0000
  C   C34       1.0  0.63814  0.09398  0.34547  1.0000
  C   C35       1.0  0.53563  0.72263  0.77627  1.0000
  C   C36       1.0  0.46436  0.27738  0.22373  1.0000
  C   C37       1.0  0.60793  0.82223  0.77251  1.0000
  C   C38       1.0  0.39206  0.17778  0.22750  1.0000
  C   C39       1.0  0.55387  0.96915  0.70622  1.0000
  C   C40       1.0  0.44612  0.03085  0.29379  1.0000
  N   N1        1.0  0.90798  0.48630  0.28545  1.0000
  N   N2        1.0  0.09202  0.51369  0.71455  1.0000
  N   N3        1.0  0.25671  0.20631  0.50433  1.0000
  N   N4        1.0  0.74328  0.79370  0.49568  1.0000
  N   N5        1.0  0.39968  0.28653  0.56975  1.0000
  N   N6        1.0  0.60032  0.71348  0.43026  1.0000
  N   N7        1.0  0.31737  0.40943  0.49699  1.0000
  N   N8        1.0  0.68263  0.59057  0.50301  1.0000
  N   N9        1.0  0.41505  0.76432  0.71802  1.0000
  N   N10       1.0  0.58494  0.23568  0.28198  1.0000
  O   O1        1.0  0.96707  0.12423  0.29145  1.0000
  O   O2        1.0  0.03293  0.87575  0.70854  1.0000
  O   O3        1.0  0.89043  0.27427  0.12807  1.0000
  O   O4        1.0  0.10960  0.72572  0.87193  1.0000
  O   O5        1.0  0.45420  0.65148  0.30255  1.0000
  O   O6        1.0  0.54579  0.34852  0.69744  1.0000
  O   O7        1.0  0.58115  0.59355  0.14529  1.0000
  O   O8        1.0  0.41887  0.40644  0.85472  1.0000
  O   O9        1.0  0.70786  0.32041  0.45978  1.0000
  O   O10       1.0  0.29214  0.67959  0.54022  1.0000
