data_image0
_chemical_formula_structural       Na8H24C24S8O36
_chemical_formula_sum              "Na8 H24 C24 S8 O36"
_cell_length_a       6.78522
_cell_length_b       9.62768
_cell_length_c       16.1255
_cell_angle_alpha    90.0004
_cell_angle_beta     89.9999
_cell_angle_gamma    93.3035

_space_group_name_H-M_alt    "P 1"
_space_group_IT_number       1

loop_
  _space_group_symop_operation_xyz
  'x, y, z'

loop_
  _atom_site_type_symbol
  _atom_site_label
  _atom_site_symmetry_multiplicity
  _atom_site_fract_x
  _atom_site_fract_y
  _atom_site_fract_z
  _atom_site_occupancy
  Na  Na1       1.0  0.47732  0.44516  0.84113  1.0000
  Na  Na2       1.0  0.02268  0.05484  0.34113  1.0000
  Na  Na3       1.0  0.52268  0.55485  0.15887  1.0000
  Na  Na4       1.0  0.97732  0.94516  0.65887  1.0000
  Na  Na5       1.0  0.46485  0.92903  0.64075  1.0000
  Na  Na6       1.0  0.03514  0.57098  0.14075  1.0000
  Na  Na7       1.0  0.53515  0.07097  0.35925  1.0000
  Na  Na8       1.0  0.96486  0.42902  0.85925  1.0000
  H   H1        1.0  0.14302  0.82614  0.50037  1.0000
  H   H2        1.0  0.35698  0.67386  0.00037  1.0000
  H   H3        1.0  0.85698  0.17386  0.49963  1.0000
  H   H4        1.0  0.64302  0.32613  0.99963  1.0000
  H   H5        1.0  0.37933  0.74501  0.40326  1.0000
  H   H6        1.0  0.12067  0.75498  0.90326  1.0000
  H   H7        1.0  0.62067  0.25498  0.59674  1.0000
  H   H8        1.0  0.87933  0.24502  0.09674  1.0000
  H   H9        1.0  0.74491  0.44468  0.70938  1.0000
  H   H10       1.0  0.75509  0.05532  0.20938  1.0000
  H   H11       1.0  0.25509  0.55532  0.29062  1.0000
  H   H12       1.0  0.24491  0.94468  0.79062  1.0000
  H   H13       1.0  0.81971  0.59438  0.73989  1.0000
  H   H14       1.0  0.68029  0.90563  0.23989  1.0000
  H   H15       1.0  0.18029  0.40562  0.26011  1.0000
  H   H16       1.0  0.31971  0.09438  0.76011  1.0000
  H   H17       1.0  0.28815  0.39502  0.39878  1.0000
  H   H18       1.0  0.21184  0.10497  0.89878  1.0000
  H   H19       1.0  0.71185  0.60498  0.60122  1.0000
  H   H20       1.0  0.78816  0.89502  0.10122  1.0000
  H   H21       1.0  0.21506  0.35835  0.66423  1.0000
  H   H22       1.0  0.28494  0.14165  0.16423  1.0000
  H   H23       1.0  0.78494  0.64164  0.33577  1.0000
  H   H24       1.0  0.71506  0.85835  0.83577  1.0000
  C   C1        1.0  0.23118  0.65009  0.54260  1.0000
  C   C2        1.0  0.26881  0.84992  0.04260  1.0000
  C   C3        1.0  0.76882  0.34991  0.45740  1.0000
  C   C4        1.0  0.73118  0.15008  0.95740  1.0000
  C   C5        1.0  0.26066  0.58730  0.46477  1.0000
  C   C6        1.0  0.23935  0.91270  0.96477  1.0000
  C   C7        1.0  0.73936  0.41271  0.53523  1.0000
  C   C8        1.0  0.76065  0.08729  0.03523  1.0000
  C   C9        1.0  0.26487  0.44288  0.45887  1.0000
  C   C10       1.0  0.23512  0.05712  0.95887  1.0000
  C   C11       1.0  0.73513  0.55712  0.54113  1.0000
  C   C12       1.0  0.76489  0.94287  0.04113  1.0000
  C   C13       1.0  0.24525  0.36169  0.53021  1.0000
  C   C14       1.0  0.25475  0.13831  0.03021  1.0000
  C   C15       1.0  0.75475  0.63831  0.46979  1.0000
  C   C16       1.0  0.74526  0.86169  0.96979  1.0000
  C   C17       1.0  0.22733  0.42179  0.60838  1.0000
  C   C18       1.0  0.27266  0.07822  0.10839  1.0000
  C   C19       1.0  0.77267  0.57821  0.39162  1.0000
  C   C20       1.0  0.72734  0.92178  0.89161  1.0000
  C   C21       1.0  0.22228  0.56582  0.61406  1.0000
  C   C22       1.0  0.27773  0.93418  0.11406  1.0000
  C   C23       1.0  0.77772  0.43418  0.38594  1.0000
  C   C24       1.0  0.72228  0.06582  0.88594  1.0000
  S   S1        1.0  0.24906  0.17854  0.52330  1.0000
  S   S2        1.0  0.25093  0.32146  0.02330  1.0000
  S   S3        1.0  0.75094  0.82145  0.47670  1.0000
  S   S4        1.0  0.74907  0.67853  0.97670  1.0000
  S   S5        1.0  0.21243  0.64430  0.71389  1.0000
  S   S6        1.0  0.28758  0.85572  0.21388  1.0000
  S   S7        1.0  0.78757  0.35570  0.28611  1.0000
  S   S8        1.0  0.71242  0.14428  0.78611  1.0000
  O   O1        1.0  0.21664  0.79104  0.54927  1.0000
  O   O2        1.0  0.28337  0.70897  0.04927  1.0000
  O   O3        1.0  0.78336  0.20896  0.45073  1.0000
  O   O4        1.0  0.71664  0.29103  0.95073  1.0000
  O   O5        1.0  0.28048  0.66559  0.39412  1.0000
  O   O6        1.0  0.21952  0.83441  0.89412  1.0000
  O   O7        1.0  0.71952  0.33441  0.60588  1.0000
  O   O8        1.0  0.78048  0.16559  0.10588  1.0000
  O   O9        1.0  0.06092  0.12144  0.55912  1.0000
  O   O10       1.0  0.43908  0.37856  0.05912  1.0000
  O   O11       1.0  0.93907  0.87856  0.44088  1.0000
  O   O12       1.0  0.56092  0.62144  0.94088  1.0000
  O   O13       1.0  0.41963  0.13842  0.57302  1.0000
  O   O14       1.0  0.08037  0.36159  0.07302  1.0000
  O   O15       1.0  0.58038  0.86158  0.42698  1.0000
  O   O16       1.0  0.91963  0.63841  0.92698  1.0000
  O   O17       1.0  0.26815  0.14469  0.43496  1.0000
  O   O18       1.0  0.23184  0.35531  0.93495  1.0000
  O   O19       1.0  0.73185  0.85531  0.56504  1.0000
  O   O20       1.0  0.76816  0.64469  0.06505  1.0000
  O   O21       1.0  0.20854  0.52885  0.77369  1.0000
  O   O22       1.0  0.29148  0.97115  0.27368  1.0000
  O   O23       1.0  0.79146  0.47115  0.22631  1.0000
  O   O24       1.0  0.70853  0.02884  0.72632  1.0000
  O   O25       1.0  0.02777  0.71898  0.71654  1.0000
  O   O26       1.0  0.47223  0.78104  0.21654  1.0000
  O   O27       1.0  0.97223  0.28102  0.28346  1.0000
  O   O28       1.0  0.52776  0.21896  0.78346  1.0000
  O   O29       1.0  0.39112  0.73544  0.71974  1.0000
  O   O30       1.0  0.10889  0.76456  0.21974  1.0000
  O   O31       1.0  0.60887  0.26455  0.28026  1.0000
  O   O32       1.0  0.89112  0.23544  0.78026  1.0000
  O   O33       1.0  0.73714  0.51081  0.75549  1.0000
  O   O34       1.0  0.76287  0.98919  0.25549  1.0000
  O   O35       1.0  0.26286  0.48919  0.24451  1.0000
  O   O36       1.0  0.23713  0.01081  0.74451  1.0000
