data_image0
_chemical_formula_structural       Cd2H34C34N10O8
_chemical_formula_sum              "Cd2 H34 C34 N10 O8"
_cell_length_a       8.0407
_cell_length_b       10.1394
_cell_length_c       12.5389
_cell_angle_alpha    71.3794
_cell_angle_beta     71.304
_cell_angle_gamma    66.6271

_space_group_name_H-M_alt    "P 1"
_space_group_IT_number       1

loop_
  _space_group_symop_operation_xyz
  'x, y, z'

loop_
  _atom_site_type_symbol
  _atom_site_label
  _atom_site_symmetry_multiplicity
  _atom_site_fract_x
  _atom_site_fract_y
  _atom_site_fract_z
  _atom_site_occupancy
  Cd  Cd1       1.0  0.48489  0.19348  0.70470  1.0000
  Cd  Cd2       1.0  0.61712  0.69341  0.20451  1.0000
  H   H1        1.0  0.35847  0.14374  0.00603  1.0000
  H   H2        1.0  0.49134  0.64376  0.50580  1.0000
  H   H3        1.0  0.52588  0.48980  0.76100  1.0000
  H   H4        1.0  0.22271  0.98989  0.26078  1.0000
  H   H5        1.0  0.43771  0.54226  0.98193  1.0000
  H   H6        1.0  0.03803  0.04261  0.48169  1.0000
  H   H7        1.0  0.26715  0.22780  0.18861  1.0000
  H   H8        1.0  0.31707  0.72805  0.68814  1.0000
  H   H9        1.0  0.21805  0.41779  0.17550  1.0000
  H   H10       1.0  0.18877  0.91793  0.67527  1.0000
  H   H11       1.0  0.53619  0.37609  0.18599  1.0000
  H   H12       1.0  0.90201  0.87576  0.68630  1.0000
  H   H13       1.0  0.43100  0.26359  0.30492  1.0000
  H   H14       1.0  0.00157  0.76297  0.80491  1.0000
  H   H15       1.0  0.71856  0.16457  0.09103  1.0000
  H   H16       1.0  0.02676  0.66458  0.59075  1.0000
  H   H17       1.0  0.59914  0.05168  0.19912  1.0000
  H   H18       1.0  0.15069  0.55143  0.69897  1.0000
  H   H19       1.0  0.91803  0.00231  0.22313  1.0000
  H   H20       1.0  0.85701  0.50247  0.72261  1.0000
  H   H21       1.0  0.85041  0.18530  0.23988  1.0000
  H   H22       1.0  0.72504  0.68552  0.73924  1.0000
  H   H23       1.0  0.69879  0.24143  0.42802  1.0000
  H   H24       1.0  0.63205  0.74170  0.92750  1.0000
  H   H25       1.0  0.56367  0.85875  0.62245  1.0000
  H   H26       1.0  0.95513  0.35876  0.12204  1.0000
  H   H27       1.0  0.72274  0.83182  0.39315  1.0000
  H   H28       1.0  0.05223  0.33181  0.89278  1.0000
  H   H29       1.0  0.07755  0.21612  0.71309  1.0000
  H   H30       1.0  0.99360  0.71601  0.21301  1.0000
  H   H31       1.0  0.19314  0.54264  0.33309  1.0000
  H   H32       1.0  0.93068  0.04285  0.83317  1.0000
  H   H33       1.0  0.40168  0.45298  0.46928  1.0000
  H   H34       1.0  0.67596  0.95269  0.96931  1.0000
  C   C1        1.0  0.39409  0.24429  0.96770  1.0000
  C   C2        1.0  0.39352  0.74431  0.46744  1.0000
  C   C3        1.0  0.47817  0.42611  0.84485  1.0000
  C   C4        1.0  0.25034  0.92617  0.34462  1.0000
  C   C5        1.0  0.43629  0.45304  0.95282  1.0000
  C   C6        1.0  0.15761  0.95326  0.45258  1.0000
  C   C7        1.0  0.32829  0.31656  0.15530  1.0000
  C   C8        1.0  0.20016  0.81666  0.65505  1.0000
  C   C9        1.0  0.48879  0.28022  0.21125  1.0000
  C   C10       1.0  0.02034  0.77995  0.71125  1.0000
  C   C11       1.0  0.65044  0.14358  0.18321  1.0000
  C   C12       1.0  0.02343  0.64344  0.68300  1.0000
  C   C13       1.0  0.79953  0.09475  0.25180  1.0000
  C   C14       1.0  0.85445  0.59485  0.75130  1.0000
  C   C15       1.0  0.67817  0.13517  0.45239  1.0000
  C   C16       1.0  0.73453  0.63539  0.95191  1.0000
  C   C17       1.0  0.61512  0.93370  0.54768  1.0000
  C   C18       1.0  0.90359  0.43380  0.04727  1.0000
  C   C19       1.0  0.69143  0.92038  0.43481  1.0000
  C   C20       1.0  0.95343  0.42045  0.93440  1.0000
  C   C21       1.0  0.09799  0.28841  0.62798  1.0000
  C   C22       1.0  0.98578  0.78828  0.12791  1.0000
  C   C23       1.0  0.97115  0.33303  0.55886  1.0000
  C   C24       1.0  0.13707  0.83290  0.05873  1.0000
  C   C25       1.0  0.80188  0.28552  0.60741  1.0000
  C   C26       1.0  0.30543  0.78532  0.10720  1.0000
  C   C27       1.0  0.00409  0.42505  0.44929  1.0000
  C   C28       1.0  0.12142  0.92501  0.94921  1.0000
  C   C29       1.0  0.88243  0.46833  0.36538  1.0000
  C   C30       1.0  0.28378  0.96812  0.86528  1.0000
  C   C31       1.0  0.16014  0.47061  0.41681  1.0000
  C   C32       1.0  0.95217  0.97067  0.91682  1.0000
  C   C33       1.0  0.27810  0.42101  0.49206  1.0000
  C   C34       1.0  0.80879  0.92087  0.99207  1.0000
  N   N1        1.0  0.45087  0.29603  0.85515  1.0000
  N   N2        1.0  0.39733  0.79595  0.35491  1.0000
  N   N3        1.0  0.38379  0.33660  0.02956  1.0000
  N   N4        1.0  0.24989  0.83680  0.52931  1.0000
  N   N5        1.0  0.73001  0.04942  0.37587  1.0000
  N   N6        1.0  0.84487  0.54954  0.87542  1.0000
  N   N7        1.0  0.60846  0.06757  0.55752  1.0000
  N   N8        1.0  0.76665  0.56777  0.05707  1.0000
  N   N9        1.0  0.24817  0.33101  0.59644  1.0000
  N   N10       1.0  0.82454  0.83078  0.09639  1.0000
  O   O1        1.0  0.81978  0.15923  0.67518  1.0000
  O   O2        1.0  0.34598  0.65911  0.17506  1.0000
  O   O3        1.0  0.64947  0.37527  0.58059  1.0000
  O   O4        1.0  0.39507  0.87496  0.08024  1.0000
  O   O5        1.0  0.88274  0.36955  0.32545  1.0000
  O   O6        1.0  0.42211  0.86917  0.82550  1.0000
  O   O7        1.0  0.79458  0.60665  0.33924  1.0000
  O   O8        1.0  0.25957  0.10640  0.83907  1.0000
