data_image0
_chemical_formula_structural       Co2H32C30N6O12
_chemical_formula_sum              "Co2 H32 C30 N6 O12"
_cell_length_a       7.96602
_cell_length_b       9.64941
_cell_length_c       11.8682
_cell_angle_alpha    91.2464
_cell_angle_beta     102.121
_cell_angle_gamma    113.258

_space_group_name_H-M_alt    "P 1"
_space_group_IT_number       1

loop_
  _space_group_symop_operation_xyz
  'x, y, z'

loop_
  _atom_site_type_symbol
  _atom_site_label
  _atom_site_symmetry_multiplicity
  _atom_site_fract_x
  _atom_site_fract_y
  _atom_site_fract_z
  _atom_site_occupancy
  Co  Co1       1.0  0.50000  1.00000  1.00000  1.0000
  Co  Co2       1.0  1.00000  0.50000  0.00000  1.0000
  H   H1        1.0  0.02174  0.81036  0.28948  1.0000
  H   H2        1.0  0.97825  0.18964  0.71052  1.0000
  H   H3        1.0  0.17871  0.97444  0.47695  1.0000
  H   H4        1.0  0.82129  0.02555  0.52305  1.0000
  H   H5        1.0  0.19925  0.24093  0.49229  1.0000
  H   H6        1.0  0.80076  0.75907  0.50771  1.0000
  H   H7        1.0  0.09344  0.34419  0.31371  1.0000
  H   H8        1.0  0.90656  0.65581  0.68631  1.0000
  H   H9        1.0  0.94017  0.79753  0.08305  1.0000
  H   H10       1.0  0.05982  0.20247  0.91695  1.0000
  H   H11       1.0  0.85957  0.92801  0.01034  1.0000
  H   H12       1.0  0.14043  0.07199  0.98967  1.0000
  H   H13       1.0  0.82659  0.52886  0.30771  1.0000
  H   H14       1.0  0.17343  0.47115  0.69227  1.0000
  H   H15       1.0  0.82886  0.32385  0.62732  1.0000
  H   H16       1.0  0.17116  0.67616  0.37267  1.0000
  H   H17       1.0  0.53543  0.27147  0.49421  1.0000
  H   H18       1.0  0.46459  0.72855  0.50579  1.0000
  H   H19       1.0  0.52043  0.38468  0.37895  1.0000
  H   H20       1.0  0.47958  0.61533  0.62104  1.0000
  H   H21       1.0  0.59910  0.89295  0.26643  1.0000
  H   H22       1.0  0.40089  0.10705  0.73357  1.0000
  H   H23       1.0  0.46700  0.26243  0.17366  1.0000
  H   H24       1.0  0.53299  0.73756  0.82634  1.0000
  H   H25       1.0  0.21943  0.75848  0.09486  1.0000
  H   H26       1.0  0.78057  0.24152  0.90514  1.0000
  H   H27       1.0  0.72914  0.53315  0.09710  1.0000
  H   H28       1.0  0.27085  0.46685  0.90290  1.0000
  H   H29       1.0  0.30369  0.65053  0.15744  1.0000
  H   H30       1.0  0.69630  0.34946  0.84256  1.0000
  H   H31       1.0  0.66020  0.36540  0.03152  1.0000
  H   H32       1.0  0.33978  0.63460  0.96848  1.0000
  C   C1        1.0  0.98754  0.13337  0.20375  1.0000
  C   C2        1.0  0.01245  0.86663  0.79626  1.0000
  C   C3        1.0  0.96082  0.97975  0.19693  1.0000
  C   C4        1.0  0.03918  0.02025  0.80307  1.0000
  C   C5        1.0  0.03391  0.92682  0.29649  1.0000
  C   C6        1.0  0.96609  0.07318  0.70352  1.0000
  C   C7        1.0  0.12175  0.01907  0.40175  1.0000
  C   C8        1.0  0.87826  0.98092  0.59825  1.0000
  C   C9        1.0  0.13766  0.16885  0.40940  1.0000
  C   C10       1.0  0.86234  0.83114  0.59061  1.0000
  C   C11       1.0  0.07608  0.22632  0.31035  1.0000
  C   C12       1.0  0.92392  0.77367  0.68966  1.0000
  C   C13       1.0  0.93848  0.20791  0.10051  1.0000
  C   C14       1.0  0.06151  0.79209  0.89950  1.0000
  C   C15       1.0  0.86383  0.86916  0.08783  1.0000
  C   C16       1.0  0.13615  0.13084  0.91217  1.0000
  C   C17       1.0  0.66309  0.76354  0.08979  1.0000
  C   C18       1.0  0.33690  0.23646  0.91021  1.0000
  C   C19       1.0  0.80503  0.41646  0.46350  1.0000
  C   C20       1.0  0.19499  0.58355  0.53650  1.0000
  C   C21       1.0  0.90192  0.51639  0.39231  1.0000
  C   C22       1.0  0.09811  0.48362  0.60768  1.0000
  C   C23       1.0  0.90407  0.40082  0.57123  1.0000
  C   C24       1.0  0.09597  0.59919  0.42876  1.0000
  C   C25       1.0  0.59674  0.32000  0.42213  1.0000
  C   C26       1.0  0.40328  0.68002  0.57787  1.0000
  C   C27       1.0  0.57607  0.99614  0.27109  1.0000
  C   C28       1.0  0.42393  0.00386  0.72890  1.0000
  C   C29       1.0  0.50915  0.18219  0.22101  1.0000
  C   C30       1.0  0.49085  0.81781  0.77899  1.0000
  N   N1        1.0  0.56071  0.19336  0.33735  1.0000
  N   N2        1.0  0.43930  0.80665  0.66265  1.0000
  N   N3        1.0  0.60455  0.07553  0.37108  1.0000
  N   N4        1.0  0.39546  0.92447  0.62891  1.0000
  N   N5        1.0  0.51821  0.05789  0.17573  1.0000
  N   N6        1.0  0.48178  0.94210  0.82427  1.0000
  O   O1        1.0  0.05663  0.34158  0.09588  1.0000
  O   O2        1.0  0.94336  0.65842  0.90413  1.0000
  O   O3        1.0  0.78902  0.13661  0.01980  1.0000
  O   O4        1.0  0.21098  0.86339  0.98021  1.0000
  O   O5        1.0  0.52870  0.79962  0.03828  1.0000
  O   O6        1.0  0.47130  0.20037  0.96172  1.0000
  O   O7        1.0  0.63169  0.64490  0.13951  1.0000
  O   O8        1.0  0.36830  0.35509  0.86049  1.0000
  O   O9        1.0  0.19090  0.67131  0.14280  1.0000
  O   O10       1.0  0.80909  0.32869  0.85720  1.0000
  O   O11       1.0  0.77297  0.45490  0.07477  1.0000
  O   O12       1.0  0.22701  0.54510  0.92523  1.0000
