data_image0
_chemical_formula_structural       Mn2HgSb2H16C24S6N4
_chemical_formula_sum              "Mn2 Hg1 Sb2 H16 C24 S6 N4"
_cell_length_a       7.75119
_cell_length_b       8.30109
_cell_length_c       11.3761
_cell_angle_alpha    106.014
_cell_angle_beta     93.2537
_cell_angle_gamma    101.966

_space_group_name_H-M_alt    "P 1"
_space_group_IT_number       1

loop_
  _space_group_symop_operation_xyz
  'x, y, z'

loop_
  _atom_site_type_symbol
  _atom_site_label
  _atom_site_symmetry_multiplicity
  _atom_site_fract_x
  _atom_site_fract_y
  _atom_site_fract_z
  _atom_site_occupancy
  Mn  Mn1       1.0  0.43294  0.32059  0.36893  1.0000
  Mn  Mn2       1.0  0.56709  0.67937  0.63106  1.0000
  Hg  Hg1       1.0  0.99998  0.50005  0.49999  1.0000
  Sb  Sb1       1.0  0.61273  0.24455  0.62350  1.0000
  Sb  Sb2       1.0  0.38727  0.75544  0.37659  1.0000
  H   H1        1.0  0.62517  0.46167  0.15541  1.0000
  H   H2        1.0  0.37488  0.53837  0.84457  1.0000
  H   H3        1.0  0.60997  0.36560  0.92345  1.0000
  H   H4        1.0  0.39000  0.63435  0.07655  1.0000
  H   H5        1.0  0.39637  0.08918  0.80375  1.0000
  H   H6        1.0  0.60361  0.91082  0.19624  1.0000
  H   H7        1.0  0.16242  0.82970  0.80706  1.0000
  H   H8        1.0  0.83759  0.17025  0.19292  1.0000
  H   H9        1.0  0.97913  0.66850  0.92526  1.0000
  H   H10       1.0  0.02093  0.33147  0.07472  1.0000
  H   H11       1.0  0.88291  0.64889  0.13279  1.0000
  H   H12       1.0  0.11712  0.35103  0.86720  1.0000
  H   H13       1.0  0.90110  0.78881  0.35769  1.0000
  H   H14       1.0  0.09899  0.21117  0.64225  1.0000
  H   H15       1.0  0.12370  0.07289  0.45442  1.0000
  H   H16       1.0  0.87621  0.92709  0.54561  1.0000
  C   C1        1.0  0.53291  0.34342  0.09928  1.0000
  C   C2        1.0  0.46708  0.65660  0.90075  1.0000
  C   C3        1.0  0.52299  0.28913  0.97011  1.0000
  C   C4        1.0  0.47696  0.71086  0.02992  1.0000
  C   C5        1.0  0.40545  0.13697  0.90410  1.0000
  C   C6        1.0  0.59456  0.86300  0.09589  1.0000
  C   C7        1.0  0.29723  0.03953  0.96791  1.0000
  C   C8        1.0  0.70276  0.96048  0.03211  1.0000
  C   C9        1.0  0.17392  0.87947  0.90733  1.0000
  C   C10       1.0  0.82607  0.12055  0.09266  1.0000
  C   C11       1.0  0.07254  0.79019  0.97361  1.0000
  C   C12       1.0  0.92746  0.20984  0.02638  1.0000
  C   C13       1.0  0.08355  0.85526  0.10471  1.0000
  C   C14       1.0  0.91646  0.14479  0.89527  1.0000
  C   C15       1.0  0.97566  0.77246  0.17660  1.0000
  C   C16       1.0  0.02435  0.22752  0.82337  1.0000
  C   C17       1.0  0.98710  0.84990  0.30195  1.0000
  C   C18       1.0  0.01291  0.15015  0.69801  1.0000
  C   C19       1.0  0.10904  0.00821  0.35577  1.0000
  C   C20       1.0  0.89097  0.99184  0.64424  1.0000
  C   C21       1.0  0.20371  0.01471  0.16748  1.0000
  C   C22       1.0  0.79629  0.98533  0.83253  1.0000
  C   C23       1.0  0.31439  0.10596  0.09831  1.0000
  C   C24       1.0  0.68560  0.89407  0.90171  1.0000
  S   S1        1.0  0.65104  0.14835  0.40856  1.0000
  S   S2        1.0  0.34893  0.85170  0.59153  1.0000
  S   S3        1.0  0.37177  0.38516  0.59282  1.0000
  S   S4        1.0  0.62824  0.61475  0.40713  1.0000
  S   S5        1.0  0.84754  0.52893  0.67774  1.0000
  S   S6        1.0  0.15242  0.47112  0.32224  1.0000
  N   N1        1.0  0.43171  0.25523  0.16192  1.0000
  N   N2        1.0  0.56828  0.74477  0.83808  1.0000
  N   N3        1.0  0.21567  0.08802  0.29093  1.0000
  N   N4        1.0  0.78433  0.91194  0.70908  1.0000
