data_image0
_chemical_formula_structural       Co2P2H10C8N4O8
_chemical_formula_sum              "Co2 P2 H10 C8 N4 O8"
_cell_length_a       5.24142
_cell_length_b       6.97221
_cell_length_c       10.2739
_cell_angle_alpha    105.277
_cell_angle_beta     90.0168
_cell_angle_gamma    112.082

_space_group_name_H-M_alt    "P 1"
_space_group_IT_number       1

loop_
  _space_group_symop_operation_xyz
  'x, y, z'

loop_
  _atom_site_type_symbol
  _atom_site_label
  _atom_site_symmetry_multiplicity
  _atom_site_fract_x
  _atom_site_fract_y
  _atom_site_fract_z
  _atom_site_occupancy
  Co  Co1       1.0  0.65919  0.67965  0.10266  1.0000
  Co  Co2       1.0  0.02057  0.67949  0.60265  1.0000
  P   P1        1.0  0.20846  0.71980  0.92701  1.0000
  P   P2        1.0  0.51128  0.71972  0.42701  1.0000
  H   H1        1.0  0.96788  0.81299  0.33429  1.0000
  H   H2        1.0  0.84527  0.81307  0.83418  1.0000
  H   H3        1.0  0.20933  0.81572  0.24530  1.0000
  H   H4        1.0  0.60659  0.81577  0.74516  1.0000
  H   H5        1.0  0.28011  0.19525  0.96988  1.0000
  H   H6        1.0  0.91454  0.19512  0.46957  1.0000
  H   H7        1.0  0.01350  0.51070  0.22962  1.0000
  H   H8        1.0  0.49704  0.51048  0.72944  1.0000
  H   H9        1.0  0.02194  0.15804  0.23477  1.0000
  H   H10       1.0  0.13614  0.15788  0.73460  1.0000
  C   C1        1.0  0.45429  0.98600  0.02764  1.0000
  C   C2        1.0  0.53163  0.98587  0.52761  1.0000
  C   C3        1.0  0.44626  0.18462  0.02785  1.0000
  C   C4        1.0  0.73806  0.18451  0.52769  1.0000
  C   C5        1.0  0.84928  0.36190  0.17277  1.0000
  C   C6        1.0  0.51253  0.36175  0.67256  1.0000
  C   C7        1.0  0.85694  0.16656  0.17504  1.0000
  C   C8        1.0  0.30969  0.16640  0.67492  1.0000
  N   N1        1.0  0.66060  0.97891  0.10265  1.0000
  N   N2        1.0  0.31830  0.97873  0.60262  1.0000
  N   N3        1.0  0.64424  0.37352  0.10024  1.0000
  N   N4        1.0  0.72911  0.37344  0.60005  1.0000
  O   O1        1.0  0.29204  0.56115  0.97672  1.0000
  O   O2        1.0  0.26894  0.56102  0.47665  1.0000
  O   O3        1.0  0.25601  0.71526  0.77826  1.0000
  O   O4        1.0  0.45950  0.71539  0.27827  1.0000
  O   O5        1.0  0.91392  0.70881  0.95031  1.0000
  O   O6        1.0  0.79469  0.70860  0.45042  1.0000
  O   O7        1.0  0.04437  0.85408  0.25154  1.0000
  O   O8        1.0  0.80991  0.85412  0.75139  1.0000
