data_image0
_chemical_formula_structural       H28Pb2C28N8Cl4
_chemical_formula_sum              "H28 Pb2 C28 N8 Cl4"
_cell_length_a       4.08424
_cell_length_b       12.8016
_cell_length_c       16.0807
_cell_angle_alpha    97.8651
_cell_angle_beta     89.9992
_cell_angle_gamma    89.9938

_space_group_name_H-M_alt    "P 1"
_space_group_IT_number       1

loop_
  _space_group_symop_operation_xyz
  'x, y, z'

loop_
  _atom_site_type_symbol
  _atom_site_label
  _atom_site_symmetry_multiplicity
  _atom_site_fract_x
  _atom_site_fract_y
  _atom_site_fract_z
  _atom_site_occupancy
  H   H1        1.0  0.72499  0.73779  0.74369  1.0000
  H   H2        1.0  0.72486  0.26216  0.75629  1.0000
  H   H3        1.0  0.27509  0.26211  0.25628  1.0000
  H   H4        1.0  0.27515  0.73785  0.24372  1.0000
  H   H5        1.0  0.58335  0.60171  0.83656  1.0000
  H   H6        1.0  0.58330  0.39829  0.66348  1.0000
  H   H7        1.0  0.41648  0.39828  0.16347  1.0000
  H   H8        1.0  0.41661  0.60171  0.33653  1.0000
  H   H9        1.0  0.06288  0.80151  0.03920  1.0000
  H   H10       1.0  0.06269  0.19850  0.46075  1.0000
  H   H11       1.0  0.93715  0.19852  0.96078  1.0000
  H   H12       1.0  0.93707  0.80149  0.53925  1.0000
  H   H13       1.0  0.19066  0.92518  0.93895  1.0000
  H   H14       1.0  0.19061  0.07482  0.56096  1.0000
  H   H15       1.0  0.80941  0.07480  0.06099  1.0000
  H   H16       1.0  0.80926  0.92518  0.43904  1.0000
  H   H17       1.0  0.75489  0.57262  0.12868  1.0000
  H   H18       1.0  0.75461  0.42742  0.37135  1.0000
  H   H19       1.0  0.24522  0.42744  0.87135  1.0000
  H   H20       1.0  0.24532  0.57258  0.62866  1.0000
  H   H21       1.0  0.73461  0.71188  0.12379  1.0000
  H   H22       1.0  0.73442  0.28815  0.37621  1.0000
  H   H23       1.0  0.26562  0.28817  0.87623  1.0000
  H   H24       1.0  0.26554  0.71186  0.62380  1.0000
  H   H25       1.0  0.10216  0.64239  0.09669  1.0000
  H   H26       1.0  0.10196  0.35764  0.40325  1.0000
  H   H27       1.0  0.89796  0.35762  0.90329  1.0000
  H   H28       1.0  0.89795  0.64237  0.59678  1.0000
  Pb  Pb1       1.0  0.03037  0.99996  0.75000  1.0000
  Pb  Pb2       1.0  0.97018  1.00000  0.24999  1.0000
  C   C1        1.0  0.79870  0.74733  0.80957  1.0000
  C   C2        1.0  0.79860  0.25264  0.69041  1.0000
  C   C3        1.0  0.20131  0.25262  0.19041  1.0000
  C   C4        1.0  0.20135  0.74736  0.30960  1.0000
  C   C5        1.0  0.71925  0.67242  0.86099  1.0000
  C   C6        1.0  0.71916  0.32758  0.63902  1.0000
  C   C7        1.0  0.28066  0.32756  0.13902  1.0000
  C   C8        1.0  0.28074  0.67242  0.36099  1.0000
  C   C9        1.0  0.80973  0.68965  0.94622  1.0000
  C   C10       1.0  0.80958  0.31035  0.55378  1.0000
  C   C11       1.0  0.19022  0.31037  0.05379  1.0000
  C   C12       1.0  0.19026  0.68964  0.44623  1.0000
  C   C13       1.0  0.98298  0.78225  0.97439  1.0000
  C   C14       1.0  0.98284  0.21776  0.52556  1.0000
  C   C15       1.0  0.01700  0.21777  0.02559  1.0000
  C   C16       1.0  0.01697  0.78224  0.47444  1.0000
  C   C17       1.0  0.05467  0.85274  0.91830  1.0000
  C   C18       1.0  0.05458  0.14725  0.58164  1.0000
  C   C19       1.0  0.94535  0.14724  0.08166  1.0000
  C   C20       1.0  0.94529  0.85274  0.41836  1.0000
  C   C21       1.0  0.72112  0.61442  0.00467  1.0000
  C   C22       1.0  0.72099  0.38559  0.49535  1.0000
  C   C23       1.0  0.27892  0.38561  0.99536  1.0000
  C   C24       1.0  0.27889  0.61442  0.50467  1.0000
  C   C25       1.0  0.83397  0.63586  0.09403  1.0000
  C   C26       1.0  0.83376  0.36416  0.40597  1.0000
  C   C27       1.0  0.16615  0.36418  0.90598  1.0000
  C   C28       1.0  0.16615  0.63585  0.59405  1.0000
  N   N1        1.0  0.96361  0.83645  0.83737  1.0000
  N   N2        1.0  0.96351  0.16352  0.66258  1.0000
  N   N3        1.0  0.03645  0.16350  0.16258  1.0000
  N   N4        1.0  0.03644  0.83649  0.33743  1.0000
  N   N5        1.0  0.54203  0.53445  0.97248  1.0000
  N   N6        1.0  0.54190  0.46556  0.52754  1.0000
  N   N7        1.0  0.45809  0.46556  0.02755  1.0000
  N   N8        1.0  0.45802  0.53445  0.47248  1.0000
  Cl  Cl1       1.0  0.53632  0.90245  0.63919  1.0000
  Cl  Cl2       1.0  0.53627  0.09757  0.86077  1.0000
  Cl  Cl3       1.0  0.46385  0.09759  0.36076  1.0000
  Cl  Cl4       1.0  0.46398  0.90242  0.13920  1.0000
