data_image0
_chemical_formula_structural       KCrH12C6N4O12
_chemical_formula_sum              "K1 Cr1 H12 C6 N4 O12"
_cell_length_a       4.72442
_cell_length_b       7.31779
_cell_length_c       11.9678
_cell_angle_alpha    64.7104
_cell_angle_beta     73.6132
_cell_angle_gamma    85.5242

_space_group_name_H-M_alt    "P 1"
_space_group_IT_number       1

loop_
  _space_group_symop_operation_xyz
  'x, y, z'

loop_
  _atom_site_type_symbol
  _atom_site_label
  _atom_site_symmetry_multiplicity
  _atom_site_fract_x
  _atom_site_fract_y
  _atom_site_fract_z
  _atom_site_occupancy
  K   K1        1.0  0.50000  0.00000  1.00000  1.0000
  Cr  Cr1       1.0  0.50000  0.00000  0.50000  1.0000
  H   H1        1.0  0.17596  0.66865  0.55890  1.0000
  H   H2        1.0  0.82404  0.33135  0.44110  1.0000
  H   H3        1.0  0.12017  0.86261  0.43253  1.0000
  H   H4        1.0  0.87983  0.13739  0.56747  1.0000
  H   H5        1.0  0.15333  0.34574  0.62355  1.0000
  H   H6        1.0  0.84667  0.65427  0.37645  1.0000
  H   H7        1.0  0.82647  0.42264  0.68779  1.0000
  H   H8        1.0  0.17354  0.57736  0.31221  1.0000
  H   H9        1.0  0.00170  0.35858  0.96330  1.0000
  H   H10       1.0  0.99830  0.64142  0.03670  1.0000
  H   H11       1.0  0.76141  0.48236  0.86998  1.0000
  H   H12       1.0  0.23860  0.51764  0.13002  1.0000
  C   C1        1.0  0.16725  0.92286  0.75276  1.0000
  C   C2        1.0  0.83274  0.07714  0.24725  1.0000
  C   C3        1.0  0.42946  0.78016  0.76331  1.0000
  C   C4        1.0  0.57054  0.21984  0.23670  1.0000
  C   C5        1.0  0.14432  0.37583  0.78182  1.0000
  C   C6        1.0  0.85568  0.62417  0.21818  1.0000
  N   N1        1.0  0.94908  0.40219  0.87912  1.0000
  N   N2        1.0  0.05092  0.59781  0.12088  1.0000
  N   N3        1.0  0.05242  0.43334  0.66946  1.0000
  N   N4        1.0  0.94758  0.56666  0.33054  1.0000
  O   O1        1.0  0.59111  0.78803  0.65307  1.0000
  O   O2        1.0  0.40889  0.21197  0.34693  1.0000
  O   O3        1.0  0.98936  0.92769  0.84888  1.0000
  O   O4        1.0  0.01064  0.07231  0.15113  1.0000
  O   O5        1.0  0.16019  0.03209  0.63335  1.0000
  O   O6        1.0  0.83980  0.96791  0.36665  1.0000
  O   O7        1.0  0.46896  0.67071  0.86921  1.0000
  O   O8        1.0  0.53104  0.32928  0.13079  1.0000
  O   O9        1.0  0.26794  0.79999  0.48175  1.0000
  O   O10       1.0  0.73206  0.20001  0.51825  1.0000
  O   O11       1.0  0.39349  0.30648  0.78636  1.0000
  O   O12       1.0  0.60651  0.69351  0.21364  1.0000
