data_image0
_chemical_formula_structural       Co2H12C16N8O4
_chemical_formula_sum              "Co2 H12 C16 N8 O4"
_cell_length_a       7.334
_cell_length_b       7.33409
_cell_length_c       10.0431
_cell_angle_alpha    111.405
_cell_angle_beta     111.405
_cell_angle_gamma    89.9663

_space_group_name_H-M_alt    "P 1"
_space_group_IT_number       1

loop_
  _space_group_symop_operation_xyz
  'x, y, z'

loop_
  _atom_site_type_symbol
  _atom_site_label
  _atom_site_symmetry_multiplicity
  _atom_site_fract_x
  _atom_site_fract_y
  _atom_site_fract_z
  _atom_site_occupancy
  Co  Co1       1.0  0.49989  0.49992  0.99993  1.0000
  Co  Co2       1.0  0.74992  0.24989  0.49993  1.0000
  H   H1        1.0  0.20535  0.37491  0.24998  1.0000
  H   H2        1.0  0.04476  0.87515  0.25020  1.0000
  H   H3        1.0  0.12516  0.79476  0.75021  1.0000
  H   H4        1.0  0.62492  0.95535  0.74999  1.0000
  H   H5        1.0  0.91286  0.41503  0.03311  1.0000
  H   H6        1.0  0.12049  0.61842  0.03328  1.0000
  H   H7        1.0  0.38182  0.08725  0.96696  1.0000
  H   H8        1.0  0.58491  0.87949  0.96680  1.0000
  H   H9        1.0  0.33723  0.13181  0.46695  1.0000
  H   H10       1.0  0.12950  0.33492  0.46681  1.0000
  H   H11       1.0  0.86842  0.87049  0.53330  1.0000
  H   H12       1.0  0.66502  0.66286  0.53310  1.0000
  C   C1        1.0  0.67773  0.37496  0.24990  1.0000
  C   C2        1.0  0.57223  0.87497  0.24998  1.0000
  C   C3        1.0  0.12495  0.32222  0.74998  1.0000
  C   C4        1.0  0.62495  0.42773  0.74990  1.0000
  C   C5        1.0  0.05682  0.37490  0.24991  1.0000
  C   C6        1.0  0.19327  0.87507  0.25018  1.0000
  C   C7        1.0  0.12508  0.94326  0.75017  1.0000
  C   C8        1.0  0.62490  0.80682  0.74991  1.0000
  C   C9        1.0  0.89766  0.39907  0.13243  1.0000
  C   C10       1.0  0.23504  0.73355  0.13263  1.0000
  C   C11       1.0  0.26657  0.10245  0.86761  1.0000
  C   C12       1.0  0.60079  0.76498  0.86740  1.0000
  C   C13       1.0  0.35245  0.01657  0.36762  1.0000
  C   C14       1.0  0.01497  0.35076  0.36740  1.0000
  C   C15       1.0  0.98355  0.98503  0.63262  1.0000
  C   C16       1.0  0.64910  0.64767  0.63244  1.0000
  N   N1        1.0  0.71553  0.40469  0.13332  1.0000
  N   N2        1.0  0.41796  0.72873  0.13340  1.0000
  N   N3        1.0  0.27127  0.28450  0.86663  1.0000
  N   N4        1.0  0.59518  0.58201  0.86653  1.0000
  N   N5        1.0  0.53450  0.02127  0.36663  1.0000
  N   N6        1.0  0.83201  0.34519  0.36654  1.0000
  N   N7        1.0  0.97873  0.16797  0.63340  1.0000
  N   N8        1.0  0.65467  0.46552  0.63330  1.0000
  O   O1        1.0  0.50684  0.37499  0.24992  1.0000
  O   O2        1.0  0.74309  0.87495  0.24991  1.0000
  O   O3        1.0  0.12494  0.49307  0.74989  1.0000
  O   O4        1.0  0.62498  0.25683  0.74990  1.0000
