data_image0
_chemical_formula_structural       Ni2H40C42N4O12
_chemical_formula_sum              "Ni2 H40 C42 N4 O12"
_cell_length_a       8.19142
_cell_length_b       11.3779
_cell_length_c       11.7183
_cell_angle_alpha    109.981
_cell_angle_beta     99.7001
_cell_angle_gamma    104.3

_space_group_name_H-M_alt    "P 1"
_space_group_IT_number       1

loop_
  _space_group_symop_operation_xyz
  'x, y, z'

loop_
  _atom_site_type_symbol
  _atom_site_label
  _atom_site_symmetry_multiplicity
  _atom_site_fract_x
  _atom_site_fract_y
  _atom_site_fract_z
  _atom_site_occupancy
  Ni  Ni1       1.0  0.25115  0.27563  0.93193  1.0000
  Ni  Ni2       1.0  0.74884  0.72437  0.06807  1.0000
  H   H1        1.0  0.15884  0.37380  0.12996  1.0000
  H   H2        1.0  0.84116  0.62620  0.87005  1.0000
  H   H3        1.0  0.25792  0.48767  0.08774  1.0000
  H   H4        1.0  0.74208  0.51233  0.91227  1.0000
  H   H5        1.0  0.97557  0.13033  0.01557  1.0000
  H   H6        1.0  0.02445  0.86966  0.98441  1.0000
  H   H7        1.0  0.96426  0.01859  0.88722  1.0000
  H   H8        1.0  0.03577  0.98140  0.11276  1.0000
  H   H9        1.0  0.54642  0.09760  0.67363  1.0000
  H   H10       1.0  0.45358  0.90241  0.32637  1.0000
  H   H11       1.0  0.70240  0.25605  0.71415  1.0000
  H   H12       1.0  0.29759  0.74395  0.28585  1.0000
  H   H13       1.0  0.33674  0.00244  0.47733  1.0000
  H   H14       1.0  0.66326  0.99756  0.52267  1.0000
  H   H15       1.0  0.16021  0.01742  0.29285  1.0000
  H   H16       1.0  0.83979  0.98257  0.70715  1.0000
  H   H17       1.0  0.36204  0.44119  0.47639  1.0000
  H   H18       1.0  0.63793  0.55881  0.52359  1.0000
  H   H19       1.0  0.54940  0.42787  0.65828  1.0000
  H   H20       1.0  0.45057  0.57212  0.34171  1.0000
  H   H21       1.0  0.52923  0.45796  0.15059  1.0000
  H   H22       1.0  0.47076  0.54204  0.84941  1.0000
  H   H23       1.0  0.73174  0.44263  0.32282  1.0000
  H   H24       1.0  0.26826  0.55737  0.67718  1.0000
  H   H25       1.0  0.47660  0.01702  0.14825  1.0000
  H   H26       1.0  0.52343  0.98298  0.85176  1.0000
  H   H27       1.0  0.28139  0.05071  0.98367  1.0000
  H   H28       1.0  0.71864  0.94929  0.01633  1.0000
  H   H29       1.0  0.73448  0.11202  0.33503  1.0000
  H   H30       1.0  0.26553  0.88799  0.66498  1.0000
  H   H31       1.0  0.80938  0.41114  0.48485  1.0000
  H   H32       1.0  0.19065  0.58887  0.51516  1.0000
  H   H33       1.0  0.93903  0.10655  0.47917  1.0000
  H   H34       1.0  0.06096  0.89345  0.52084  1.0000
  H   H35       1.0  0.10753  0.10521  0.67441  1.0000
  H   H36       1.0  0.89245  0.89479  0.32560  1.0000
  H   H37       1.0  0.11199  0.48056  0.89225  1.0000
  H   H38       1.0  0.88801  0.51944  0.10776  1.0000
  H   H39       1.0  0.94567  0.49971  0.70524  1.0000
  H   H40       1.0  0.05433  0.50030  0.29477  1.0000
  C   C1        1.0  0.50196  0.26149  0.80891  1.0000
  C   C2        1.0  0.49804  0.73851  0.19109  1.0000
  C   C3        1.0  0.56287  0.20182  0.69338  1.0000
  C   C4        1.0  0.43712  0.79819  0.30661  1.0000
  C   C5        1.0  0.45482  0.21318  0.58167  1.0000
  C   C6        1.0  0.54516  0.78681  0.41832  1.0000
  C   C7        1.0  0.34323  0.09942  0.47758  1.0000
  C   C8        1.0  0.65676  0.90057  0.52241  1.0000
  C   C9        1.0  0.24126  0.10761  0.37429  1.0000
  C   C10       1.0  0.75873  0.89239  0.62570  1.0000
  C   C11       1.0  0.24604  0.23118  0.37340  1.0000
  C   C12       1.0  0.75394  0.76882  0.62660  1.0000
  C   C13       1.0  0.35698  0.34522  0.47789  1.0000
  C   C14       1.0  0.64299  0.65478  0.52211  1.0000
  C   C15       1.0  0.46090  0.33709  0.58021  1.0000
  C   C16       1.0  0.53908  0.66291  0.41978  1.0000
  C   C17       1.0  0.14159  0.24322  0.26112  1.0000
  C   C18       1.0  0.85840  0.75677  0.73887  1.0000
  C   C19       1.0  0.52154  0.36299  0.15565  1.0000
  C   C20       1.0  0.47848  0.63702  0.84435  1.0000
  C   C21       1.0  0.63383  0.35249  0.25080  1.0000
  C   C22       1.0  0.36618  0.64752  0.74920  1.0000
  C   C23       1.0  0.62155  0.22765  0.25252  1.0000
  C   C24       1.0  0.37847  0.77236  0.74749  1.0000
  C   C25       1.0  0.49355  0.11687  0.15306  1.0000
  C   C26       1.0  0.50647  0.88314  0.84694  1.0000
  C   C27       1.0  0.38346  0.13423  0.06091  1.0000
  C   C28       1.0  0.61656  0.86577  0.93909  1.0000
  C   C29       1.0  0.73255  0.21248  0.35348  1.0000
  C   C30       1.0  0.26746  0.78753  0.64653  1.0000
  C   C31       1.0  0.82171  0.31340  0.46674  1.0000
  C   C32       1.0  0.17831  0.68660  0.53326  1.0000
  C   C33       1.0  0.92554  0.30396  0.57435  1.0000
  C   C34       1.0  0.07447  0.69604  0.42566  1.0000
  C   C35       1.0  0.97284  0.19179  0.56817  1.0000
  C   C36       1.0  0.02715  0.80821  0.43185  1.0000
  C   C37       1.0  0.06690  0.18963  0.67645  1.0000
  C   C38       1.0  0.93308  0.81036  0.32356  1.0000
  C   C39       1.0  0.07243  0.40051  0.79895  1.0000
  C   C40       1.0  0.92757  0.59949  0.20106  1.0000
  C   C41       1.0  0.97942  0.41002  0.69374  1.0000
  C   C42       1.0  0.02059  0.58999  0.30627  1.0000
  N   N1        1.0  0.39639  0.25558  0.06267  1.0000
  N   N2        1.0  0.60362  0.74441  0.93733  1.0000
  N   N3        1.0  0.11728  0.29205  0.79118  1.0000
  N   N4        1.0  0.88272  0.70796  0.20883  1.0000
  O   O1        1.0  0.36524  0.18144  0.81746  1.0000
  O   O2        1.0  0.63476  0.81856  0.18254  1.0000
  O   O3        1.0  0.57268  0.38072  0.88342  1.0000
  O   O4        1.0  0.42732  0.61928  0.11658  1.0000
  O   O5        1.0  0.02563  0.13997  0.17492  1.0000
  O   O6        1.0  0.97436  0.86001  0.82506  1.0000
  O   O7        1.0  0.17915  0.35828  0.25927  1.0000
  O   O8        1.0  0.82083  0.64171  0.74073  1.0000
  O   O9        1.0  0.16526  0.39818  0.05367  1.0000
  O   O10       1.0  0.83474  0.60182  0.94634  1.0000
  O   O11       1.0  0.96019  0.10997  0.92435  1.0000
  O   O12       1.0  0.03985  0.89002  0.07563  1.0000
