data_image0
_chemical_formula_structural       Cu4H16C16O24
_chemical_formula_sum              "Cu4 H16 C16 O24"
_cell_length_a       4.96184
_cell_length_b       9.0021
_cell_length_c       11.9345
_cell_angle_alpha    90.0014
_cell_angle_beta     90.0003
_cell_angle_gamma    89.9993

_space_group_name_H-M_alt    "P 1"
_space_group_IT_number       1

loop_
  _space_group_symop_operation_xyz
  'x, y, z'

loop_
  _atom_site_type_symbol
  _atom_site_label
  _atom_site_symmetry_multiplicity
  _atom_site_fract_x
  _atom_site_fract_y
  _atom_site_fract_z
  _atom_site_occupancy
  Cu  Cu1       1.0  0.58555  0.25694  0.28949  1.0000
  Cu  Cu2       1.0  0.41443  0.25694  0.71051  1.0000
  Cu  Cu3       1.0  0.91444  0.74306  0.78949  1.0000
  Cu  Cu4       1.0  0.08555  0.74306  0.21051  1.0000
  H   H1        1.0  0.73520  0.33427  0.50714  1.0000
  H   H2        1.0  0.26492  0.33423  0.49286  1.0000
  H   H3        1.0  0.76499  0.66579  0.00714  1.0000
  H   H4        1.0  0.23529  0.66569  0.99285  1.0000
  H   H5        1.0  0.16305  0.11348  0.36295  1.0000
  H   H6        1.0  0.83695  0.11348  0.63706  1.0000
  H   H7        1.0  0.33694  0.88653  0.86294  1.0000
  H   H8        1.0  0.66305  0.88652  0.13705  1.0000
  H   H9        1.0  0.71917  0.62479  0.44872  1.0000
  H   H10       1.0  0.28080  0.62478  0.55128  1.0000
  H   H11       1.0  0.78079  0.37522  0.94871  1.0000
  H   H12       1.0  0.21916  0.37519  0.05128  1.0000
  H   H13       1.0  0.34349  0.90543  0.41789  1.0000
  H   H14       1.0  0.65652  0.90543  0.58211  1.0000
  H   H15       1.0  0.15650  0.09458  0.91789  1.0000
  H   H16       1.0  0.84348  0.09457  0.08212  1.0000
  C   C1        1.0  0.40407  0.54097  0.34513  1.0000
  C   C2        1.0  0.59591  0.54097  0.65486  1.0000
  C   C3        1.0  0.09590  0.45903  0.84513  1.0000
  C   C4        1.0  0.90407  0.45901  0.15487  1.0000
  C   C5        1.0  0.58881  0.52601  0.44741  1.0000
  C   C6        1.0  0.41117  0.52601  0.55259  1.0000
  C   C7        1.0  0.91116  0.47400  0.94741  1.0000
  C   C8        1.0  0.08881  0.47398  0.05260  1.0000
  C   C9        1.0  0.73904  0.97913  0.37355  1.0000
  C   C10       1.0  0.26097  0.97913  0.62645  1.0000
  C   C11       1.0  0.76095  0.02090  0.87355  1.0000
  C   C12       1.0  0.23903  0.02089  0.12645  1.0000
  C   C13       1.0  0.47308  0.00140  0.43633  1.0000
  C   C14       1.0  0.52692  0.00140  0.56367  1.0000
  C   C15       1.0  0.02691  0.99861  0.93633  1.0000
  C   C16       1.0  0.97308  0.99860  0.06367  1.0000
  O   O1        1.0  0.34474  0.42855  0.28527  1.0000
  O   O2        1.0  0.65523  0.42856  0.71473  1.0000
  O   O3        1.0  0.15524  0.57145  0.78528  1.0000
  O   O4        1.0  0.84475  0.57145  0.21473  1.0000
  O   O5        1.0  0.31034  0.67045  0.33207  1.0000
  O   O6        1.0  0.68964  0.67046  0.66792  1.0000
  O   O7        1.0  0.18962  0.32955  0.83207  1.0000
  O   O8        1.0  0.81034  0.32955  0.16792  1.0000
  O   O9        1.0  0.83728  0.09258  0.31850  1.0000
  O   O10       1.0  0.16272  0.09258  0.68150  1.0000
  O   O11       1.0  0.66271  0.90742  0.81850  1.0000
  O   O12       1.0  0.33727  0.90741  0.18150  1.0000
  O   O13       1.0  0.85633  0.85815  0.38078  1.0000
  O   O14       1.0  0.14369  0.85815  0.61922  1.0000
  O   O15       1.0  0.64367  0.14184  0.88078  1.0000
  O   O16       1.0  0.35631  0.14184  0.11922  1.0000
  O   O17       1.0  0.74674  0.39382  0.43852  1.0000
  O   O18       1.0  0.25324  0.39382  0.56147  1.0000
  O   O19       1.0  0.75324  0.60619  0.93854  1.0000
  O   O20       1.0  0.24675  0.60616  0.06149  1.0000
  O   O21       1.0  0.33999  0.13724  0.40051  1.0000
  O   O22       1.0  0.66001  0.13724  0.59950  1.0000
  O   O23       1.0  0.16001  0.86277  0.90050  1.0000
  O   O24       1.0  0.83998  0.86276  0.09949  1.0000
