data_image0
_chemical_formula_structural       CoH18C16S2N4O2
_chemical_formula_sum              "Co1 H18 C16 S2 N4 O2"
_cell_length_a       7.04088
_cell_length_b       7.8173
_cell_length_c       8.77865
_cell_angle_alpha    66.8893
_cell_angle_beta     89.4152
_cell_angle_gamma    76.2206

_space_group_name_H-M_alt    "P 1"
_space_group_IT_number       1

loop_
  _space_group_symop_operation_xyz
  'x, y, z'

loop_
  _atom_site_type_symbol
  _atom_site_label
  _atom_site_symmetry_multiplicity
  _atom_site_fract_x
  _atom_site_fract_y
  _atom_site_fract_z
  _atom_site_occupancy
  Co  Co1       1.0  0.50000  0.50001  0.49999  1.0000
  H   H1        1.0  0.35149  0.08741  0.20216  1.0000
  H   H2        1.0  0.64851  0.91260  0.79784  1.0000
  H   H3        1.0  0.18457  0.37092  0.95111  1.0000
  H   H4        1.0  0.81544  0.62908  0.04889  1.0000
  H   H5        1.0  0.18393  0.70366  0.93617  1.0000
  H   H6        1.0  0.81608  0.29634  0.06382  1.0000
  H   H7        1.0  0.34228  0.72744  0.17225  1.0000
  H   H8        1.0  0.65772  0.27257  0.82774  1.0000
  H   H9        1.0  0.62999  0.10862  0.54855  1.0000
  H   H10       1.0  0.37000  0.89138  0.45145  1.0000
  H   H11       1.0  0.09258  0.77358  0.33772  1.0000
  H   H12       1.0  0.90742  0.22641  0.66228  1.0000
  H   H13       1.0  0.99711  0.59182  0.61162  1.0000
  H   H14       1.0  0.00289  0.40818  0.38839  1.0000
  H   H15       1.0  0.93874  0.84884  0.53684  1.0000
  H   H16       1.0  0.06126  0.15116  0.46316  1.0000
  H   H17       1.0  0.15061  0.70512  0.67976  1.0000
  H   H18       1.0  0.84939  0.29488  0.32024  1.0000
  C   C1        1.0  0.28433  0.22379  0.73336  1.0000
  C   C2        1.0  0.71569  0.77621  0.26664  1.0000
  C   C3        1.0  0.42482  0.25384  0.32821  1.0000
  C   C4        1.0  0.57517  0.74616  0.67179  1.0000
  C   C5        1.0  0.34071  0.23186  0.19443  1.0000
  C   C6        1.0  0.65928  0.76813  0.80557  1.0000
  C   C7        1.0  0.25028  0.39059  0.05289  1.0000
  C   C8        1.0  0.74973  0.60940  0.94711  1.0000
  C   C9        1.0  0.24939  0.57255  0.04423  1.0000
  C   C10       1.0  0.75062  0.42744  0.95577  1.0000
  C   C11       1.0  0.33773  0.58739  0.17727  1.0000
  C   C12       1.0  0.66226  0.41260  0.82274  1.0000
  C   C13       1.0  0.52011  0.08665  0.47651  1.0000
  C   C14       1.0  0.47987  0.91335  0.52349  1.0000
  C   C15       1.0  0.05894  0.71747  0.57405  1.0000
  C   C16       1.0  0.94106  0.28253  0.42595  1.0000
  S   S1        1.0  0.15842  0.08266  0.85229  1.0000
  S   S2        1.0  0.84158  0.91734  0.14771  1.0000
  N   N1        1.0  0.37661  0.32659  0.64740  1.0000
  N   N2        1.0  0.62338  0.67341  0.35261  1.0000
  N   N3        1.0  0.42176  0.43408  0.31813  1.0000
  N   N4        1.0  0.57824  0.56592  0.68187  1.0000
  O   O1        1.0  0.18133  0.72739  0.44085  1.0000
  O   O2        1.0  0.81867  0.27260  0.55915  1.0000
