data_image0
_chemical_formula_structural       MnH16C18S2N4O8
_chemical_formula_sum              "Mn1 H16 C18 S2 N4 O8"
_cell_length_a       6.91936
_cell_length_b       7.60747
_cell_length_c       10.4735
_cell_angle_alpha    106.409
_cell_angle_beta     95.999
_cell_angle_gamma    107.906

_space_group_name_H-M_alt    "P 1"
_space_group_IT_number       1

loop_
  _space_group_symop_operation_xyz
  'x, y, z'

loop_
  _atom_site_type_symbol
  _atom_site_label
  _atom_site_symmetry_multiplicity
  _atom_site_fract_x
  _atom_site_fract_y
  _atom_site_fract_z
  _atom_site_occupancy
  Mn  Mn1       1.0  0.00001  0.00000  0.00000  1.0000
  H   H1        1.0  0.30537  0.87085  0.42896  1.0000
  H   H2        1.0  0.69463  0.12915  0.57103  1.0000
  H   H3        1.0  0.37723  0.93503  0.68019  1.0000
  H   H4        1.0  0.62277  0.06497  0.31981  1.0000
  H   H5        1.0  0.34784  0.66177  0.77095  1.0000
  H   H6        1.0  0.65216  0.33823  0.22905  1.0000
  H   H7        1.0  0.23955  0.31800  0.61456  1.0000
  H   H8        1.0  0.76045  0.68200  0.38544  1.0000
  H   H9        1.0  0.75007  0.25346  0.94527  1.0000
  H   H10       1.0  0.24993  0.74655  0.05473  1.0000
  H   H11       1.0  0.04023  0.31304  0.91086  1.0000
  H   H12       1.0  0.95977  0.68696  0.08914  1.0000
  H   H13       1.0  0.99080  0.10470  0.79033  1.0000
  H   H14       1.0  0.00921  0.89530  0.20967  1.0000
  H   H15       1.0  0.39607  0.24867  0.94148  1.0000
  H   H16       1.0  0.60393  0.75134  0.05852  1.0000
  C   C1        1.0  0.14661  0.21196  0.32239  1.0000
  C   C2        1.0  0.85339  0.78804  0.67761  1.0000
  C   C3        1.0  0.21924  0.40328  0.43495  1.0000
  C   C4        1.0  0.78076  0.59672  0.56505  1.0000
  C   C5        1.0  0.24248  0.55961  0.38591  1.0000
  C   C6        1.0  0.75752  0.44039  0.61409  1.0000
  C   C7        1.0  0.29803  0.75228  0.46955  1.0000
  C   C8        1.0  0.70197  0.24772  0.53045  1.0000
  C   C9        1.0  0.33573  0.78626  0.61009  1.0000
  C   C10       1.0  0.66427  0.21374  0.38991  1.0000
  C   C11       1.0  0.31783  0.63222  0.66158  1.0000
  C   C12       1.0  0.68216  0.36778  0.33842  1.0000
  C   C13       1.0  0.25755  0.43844  0.57463  1.0000
  C   C14       1.0  0.74245  0.56156  0.42536  1.0000
  C   C15       1.0  0.64022  0.13751  0.96906  1.0000
  C   C16       1.0  0.35978  0.86249  0.03095  1.0000
  C   C17       1.0  0.43964  0.13555  0.96707  1.0000
  C   C18       1.0  0.56037  0.86446  0.03294  1.0000
  S   S1        1.0  0.19000  0.46287  0.20678  1.0000
  S   S2        1.0  0.81000  0.53713  0.79322  1.0000
  N   N1        1.0  0.11978  0.22913  0.19610  1.0000
  N   N2        1.0  0.88022  0.77086  0.80390  1.0000
  N   N3        1.0  0.70774  0.00311  0.00244  1.0000
  N   N4        1.0  0.29226  0.99690  0.99756  1.0000
  O   O1        1.0  0.10965  0.05123  0.34399  1.0000
  O   O2        1.0  0.89034  0.94876  0.65601  1.0000
  O   O3        1.0  0.37706  0.52394  0.15513  1.0000
  O   O4        1.0  0.62294  0.47606  0.84487  1.0000
  O   O5        1.0  0.05788  0.18532  0.89161  1.0000
  O   O6        1.0  0.94213  0.81468  0.10839  1.0000
  O   O7        1.0  0.01178  0.49715  0.14531  1.0000
  O   O8        1.0  0.98822  0.50284  0.85468  1.0000
