data_image0
_chemical_formula_structural       Ni2H24C16O16
_chemical_formula_sum              "Ni2 H24 C16 O16"
_cell_length_a       8.46753
_cell_length_b       8.80329
_cell_length_c       8.80329
_cell_angle_alpha    99.4053
_cell_angle_beta     109.392
_cell_angle_gamma    109.392

_space_group_name_H-M_alt    "P 1"
_space_group_IT_number       1

loop_
  _space_group_symop_operation_xyz
  'x, y, z'

loop_
  _atom_site_type_symbol
  _atom_site_label
  _atom_site_symmetry_multiplicity
  _atom_site_fract_x
  _atom_site_fract_y
  _atom_site_fract_z
  _atom_site_occupancy
  Ni  Ni1       1.0  0.25000  0.91633  0.08367  1.0000
  Ni  Ni2       1.0  0.75000  0.08366  0.91634  1.0000
  H   H1        1.0  0.49526  0.62944  0.86308  1.0000
  H   H2        1.0  0.00474  0.13692  0.37056  1.0000
  H   H3        1.0  0.50474  0.37056  0.13692  1.0000
  H   H4        1.0  0.99526  0.86308  0.62944  1.0000
  H   H5        1.0  0.57908  0.44527  0.68650  1.0000
  H   H6        1.0  0.92092  0.31350  0.55473  1.0000
  H   H7        1.0  0.42092  0.55473  0.31350  1.0000
  H   H8        1.0  0.07908  0.68650  0.44528  1.0000
  H   H9        1.0  0.18309  0.14395  0.92414  1.0000
  H   H10       1.0  0.31691  0.07586  0.85605  1.0000
  H   H11       1.0  0.81691  0.85604  0.07586  1.0000
  H   H12       1.0  0.68309  0.92414  0.14396  1.0000
  H   H13       1.0  0.14710  0.65757  0.20741  1.0000
  H   H14       1.0  0.35290  0.79259  0.34243  1.0000
  H   H15       1.0  0.85290  0.34244  0.79258  1.0000
  H   H16       1.0  0.64710  0.20742  0.65756  1.0000
  H   H17       1.0  0.90140  0.83122  0.87676  1.0000
  H   H18       1.0  0.59860  0.12324  0.16879  1.0000
  H   H19       1.0  0.09859  0.16878  0.12323  1.0000
  H   H20       1.0  0.40141  0.87677  0.83122  1.0000
  H   H21       1.0  0.95284  0.67851  0.91671  1.0000
  H   H22       1.0  0.54716  0.08329  0.32149  1.0000
  H   H23       1.0  0.04716  0.32149  0.08329  1.0000
  H   H24       1.0  0.45284  0.91671  0.67851  1.0000
  C   C1        1.0  0.15288  0.59392  0.82493  1.0000
  C   C2        1.0  0.34712  0.17507  0.40608  1.0000
  C   C3        1.0  0.84712  0.40608  0.17507  1.0000
  C   C4        1.0  0.65288  0.82493  0.59392  1.0000
  C   C5        1.0  0.20313  0.48278  0.71995  1.0000
  C   C6        1.0  0.29687  0.28005  0.51722  1.0000
  C   C7        1.0  0.79687  0.51722  0.28005  1.0000
  C   C8        1.0  0.70313  0.71995  0.48278  1.0000
  C   C9        1.0  0.38863  0.51985  0.75660  1.0000
  C   C10       1.0  0.11137  0.24340  0.48015  1.0000
  C   C11       1.0  0.61137  0.48015  0.24340  1.0000
  C   C12       1.0  0.88863  0.75660  0.51985  1.0000
  C   C13       1.0  0.43521  0.41756  0.65747  1.0000
  C   C14       1.0  0.06479  0.34253  0.58244  1.0000
  C   C15       1.0  0.56479  0.58244  0.34253  1.0000
  C   C16       1.0  0.93521  0.65747  0.41756  1.0000
  O   O1        1.0  0.27209  0.74690  0.90577  1.0000
  O   O2        1.0  0.22791  0.09423  0.25310  1.0000
  O   O3        1.0  0.72790  0.25310  0.09423  1.0000
  O   O4        1.0  0.77210  0.90577  0.74690  1.0000
  O   O5        1.0  0.99595  0.53439  0.82865  1.0000
  O   O6        1.0  0.50405  0.17135  0.46561  1.0000
  O   O7        1.0  0.00405  0.46561  0.17135  1.0000
  O   O8        1.0  0.49595  0.82865  0.53439  1.0000
  O   O9        1.0  0.95591  0.79060  0.97235  1.0000
  O   O10       1.0  0.54409  0.02765  0.20940  1.0000
  O   O11       1.0  0.04407  0.20940  0.02764  1.0000
  O   O12       1.0  0.45593  0.97236  0.79061  1.0000
  O   O13       1.0  0.25000  0.07101  0.92899  1.0000
  O   O14       1.0  0.75000  0.92898  0.07102  1.0000
  O   O15       1.0  0.25000  0.76795  0.23204  1.0000
  O   O16       1.0  0.75000  0.23205  0.76795  1.0000
