data_image0
_chemical_formula_structural       Cd2H18C22N6O14
_chemical_formula_sum              "Cd2 H18 C22 N6 O14"
_cell_length_a       7.82314
_cell_length_b       10.738
_cell_length_c       9.79265
_cell_angle_alpha    118.725
_cell_angle_beta     105.849
_cell_angle_gamma    98.4728

_space_group_name_H-M_alt    "P 1"
_space_group_IT_number       1

loop_
  _space_group_symop_operation_xyz
  'x, y, z'

loop_
  _atom_site_type_symbol
  _atom_site_label
  _atom_site_symmetry_multiplicity
  _atom_site_fract_x
  _atom_site_fract_y
  _atom_site_fract_z
  _atom_site_occupancy
  Cd  Cd1       1.0  0.01897  0.35729  0.58586  1.0000
  Cd  Cd2       1.0  0.98104  0.64271  0.41414  1.0000
  H   H1        1.0  0.67231  0.07696  0.02834  1.0000
  H   H2        1.0  0.32766  0.92303  0.97165  1.0000
  H   H3        1.0  0.92253  0.12255  0.65615  1.0000
  H   H4        1.0  0.07747  0.87748  0.34387  1.0000
  H   H5        1.0  0.74761  0.16960  0.59546  1.0000
  H   H6        1.0  0.25239  0.83042  0.40454  1.0000
  H   H7        1.0  0.00074  0.80176  0.07952  1.0000
  H   H8        1.0  0.99927  0.19825  0.92050  1.0000
  H   H9        1.0  0.66767  0.69207  0.58250  1.0000
  H   H10       1.0  0.33233  0.30792  0.41750  1.0000
  H   H11       1.0  0.28388  0.16290  0.66935  1.0000
  H   H12       1.0  0.71612  0.83710  0.33065  1.0000
  H   H13       1.0  0.46301  0.61216  0.80677  1.0000
  H   H14       1.0  0.53699  0.38783  0.19320  1.0000
  H   H15       1.0  0.63730  0.27769  0.85699  1.0000
  H   H16       1.0  0.36271  0.72231  0.14299  1.0000
  H   H17       1.0  0.77220  0.54727  0.95134  1.0000
  H   H18       1.0  0.22780  0.45273  0.04863  1.0000
  C   C1        1.0  0.91102  0.05471  0.26520  1.0000
  C   C2        1.0  0.08897  0.94529  0.73480  1.0000
  C   C3        1.0  0.83824  0.94760  0.07525  1.0000
  C   C4        1.0  0.16175  0.05241  0.92476  1.0000
  C   C5        1.0  0.71627  0.97910  0.97183  1.0000
  C   C6        1.0  0.28372  0.02090  0.02817  1.0000
  C   C7        1.0  0.65708  0.88556  0.79677  1.0000
  C   C8        1.0  0.34290  0.11442  0.20322  1.0000
  C   C9        1.0  0.90205  0.82607  0.00068  1.0000
  C   C10       1.0  0.09795  0.17394  0.99933  1.0000
  C   C11       1.0  0.84333  0.73459  0.82385  1.0000
  C   C12       1.0  0.15667  0.26541  0.17617  1.0000
  C   C13       1.0  0.71622  0.76241  0.71972  1.0000
  C   C14       1.0  0.28377  0.23758  0.28029  1.0000
  C   C15       1.0  0.91851  0.60786  0.74702  1.0000
  C   C16       1.0  0.08151  0.39216  0.25300  1.0000
  C   C17       1.0  0.37235  0.27701  0.72711  1.0000
  C   C18       1.0  0.62765  0.72298  0.27288  1.0000
  C   C19       1.0  0.47269  0.51015  0.80054  1.0000
  C   C20       1.0  0.52730  0.48984  0.19944  1.0000
  C   C21       1.0  0.62530  0.48076  0.87294  1.0000
  C   C22       1.0  0.37472  0.51924  0.12704  1.0000
  N   N1        1.0  0.53476  0.92218  0.69083  1.0000
  N   N2        1.0  0.46523  0.07781  0.30917  1.0000
  N   N3        1.0  0.31644  0.38221  0.71023  1.0000
  N   N4        1.0  0.68356  0.61779  0.28976  1.0000
  N   N5        1.0  0.55829  0.33425  0.82547  1.0000
  N   N6        1.0  0.44171  0.66574  0.17452  1.0000
  O   O1        1.0  0.50502  0.04366  0.76002  1.0000
  O   O2        1.0  0.49498  0.95632  0.23995  1.0000
  O   O3        1.0  0.46617  0.82960  0.53441  1.0000
  O   O4        1.0  0.53381  0.17036  0.46558  1.0000
  O   O5        1.0  0.85965  0.17196  0.31403  1.0000
  O   O6        1.0  0.14034  0.82804  0.68597  1.0000
  O   O7        1.0  0.01884  0.02854  0.36259  1.0000
  O   O8        1.0  0.98116  0.97148  0.63742  1.0000
  O   O9        1.0  0.88030  0.21115  0.67501  1.0000
  O   O10       1.0  0.11970  0.78887  0.32501  1.0000
  O   O11       1.0  0.03719  0.58706  0.84442  1.0000
  O   O12       1.0  0.96284  0.41297  0.15561  1.0000
  O   O13       1.0  0.85636  0.52334  0.58415  1.0000
  O   O14       1.0  0.14367  0.47667  0.41587  1.0000
