data_image0
_chemical_formula_structural       Mn3H16C20N2O12
_chemical_formula_sum              "Mn3 H16 C20 N2 O12"
_cell_length_a       7.67139
_cell_length_b       8.83435
_cell_length_c       9.39946
_cell_angle_alpha    68.0137
_cell_angle_beta     84.0595
_cell_angle_gamma    66.5146

_space_group_name_H-M_alt    "P 1"
_space_group_IT_number       1

loop_
  _space_group_symop_operation_xyz
  'x, y, z'

loop_
  _atom_site_type_symbol
  _atom_site_label
  _atom_site_symmetry_multiplicity
  _atom_site_fract_x
  _atom_site_fract_y
  _atom_site_fract_z
  _atom_site_occupancy
  Mn  Mn1       1.0  0.49957  0.00125  0.49979  1.0000
  Mn  Mn2       1.0  0.29850  0.45668  0.49888  1.0000
  Mn  Mn3       1.0  0.70090  0.54333  0.50103  1.0000
  H   H1        1.0  0.49983  0.11024  0.08888  1.0000
  H   H2        1.0  0.50052  0.88961  0.91093  1.0000
  H   H3        1.0  0.43783  0.15679  0.81381  1.0000
  H   H4        1.0  0.56164  0.84307  0.18626  1.0000
  H   H5        1.0  0.10581  0.68730  0.71222  1.0000
  H   H6        1.0  0.89324  0.31246  0.28822  1.0000
  H   H7        1.0  0.14938  0.66162  0.98380  1.0000
  H   H8        1.0  0.85036  0.33804  0.01651  1.0000
  H   H9        1.0  0.89605  0.04905  0.33186  1.0000
  H   H10       1.0  0.10336  0.95131  0.66740  1.0000
  H   H11       1.0  0.83742  0.00323  0.18176  1.0000
  H   H12       1.0  0.16344  0.99637  0.81747  1.0000
  H   H13       1.0  0.18341  0.77604  0.20272  1.0000
  H   H14       1.0  0.81758  0.22438  0.79720  1.0000
  H   H15       1.0  0.15658  0.00202  0.14172  1.0000
  H   H16       1.0  0.84401  0.99850  0.85866  1.0000
  C   C1        1.0  0.37156  0.35550  0.21910  1.0000
  C   C2        1.0  0.62922  0.64421  0.78081  1.0000
  C   C3        1.0  0.33100  0.38312  0.05633  1.0000
  C   C4        1.0  0.66908  0.61660  0.94387  1.0000
  C   C5        1.0  0.41159  0.23934  0.00753  1.0000
  C   C6        1.0  0.58844  0.76047  0.99247  1.0000
  C   C7        1.0  0.37913  0.26532  0.85632  1.0000
  C   C8        1.0  0.62050  0.73455  0.14377  1.0000
  C   C9        1.0  0.19329  0.56208  0.79923  1.0000
  C   C10       1.0  0.80610  0.43770  0.20107  1.0000
  C   C11       1.0  0.21700  0.54719  0.94961  1.0000
  C   C12       1.0  0.78272  0.45251  0.05067  1.0000
  C   C13       1.0  0.89250  0.79381  0.40079  1.0000
  C   C14       1.0  0.10737  0.20628  0.59855  1.0000
  C   C15       1.0  0.93513  0.94505  0.28303  1.0000
  C   C16       1.0  0.06513  0.05496  0.71654  1.0000
  C   C17       1.0  0.14283  0.88978  0.23863  1.0000
  C   C18       1.0  0.85766  0.11056  0.76149  1.0000
  C   C19       1.0  0.28224  0.84583  0.36641  1.0000
  C   C20       1.0  0.71758  0.15445  0.63421  1.0000
  N   N1        1.0  0.27426  0.42429  0.75197  1.0000
  N   N2        1.0  0.72498  0.57555  0.24819  1.0000
  O   O1        1.0  0.49950  0.20753  0.29672  1.0000
  O   O2        1.0  0.50162  0.79204  0.70295  1.0000
  O   O3        1.0  0.27768  0.48085  0.26729  1.0000
  O   O4        1.0  0.72377  0.51858  0.73314  1.0000
  O   O5        1.0  0.02455  0.65683  0.48366  1.0000
  O   O6        1.0  0.97528  0.34258  0.51530  1.0000
  O   O7        1.0  0.71679  0.81003  0.41404  1.0000
  O   O8        1.0  0.28305  0.19069  0.58554  1.0000
  O   O9        1.0  0.39300  0.68234  0.43716  1.0000
  O   O10       1.0  0.60644  0.31788  0.56365  1.0000
  O   O11       1.0  0.28402  0.97514  0.39339  1.0000
  O   O12       1.0  0.71561  0.02508  0.60744  1.0000
