data_image0
_chemical_formula_structural       Ni3P4H22C10N4O18
_chemical_formula_sum              "Ni3 P4 H22 C10 N4 O18"
_cell_length_a       6.80297
_cell_length_b       9.84892
_cell_length_c       9.265
_cell_angle_alpha    79.1518
_cell_angle_beta     80.0163
_cell_angle_gamma    90.5014

_space_group_name_H-M_alt    "P 1"
_space_group_IT_number       1

loop_
  _space_group_symop_operation_xyz
  'x, y, z'

loop_
  _atom_site_type_symbol
  _atom_site_label
  _atom_site_symmetry_multiplicity
  _atom_site_fract_x
  _atom_site_fract_y
  _atom_site_fract_z
  _atom_site_occupancy
  Ni  Ni1       1.0  0.00001  0.00001  0.50000  1.0000
  Ni  Ni2       1.0  0.80884  0.05966  0.04739  1.0000
  Ni  Ni3       1.0  0.19115  0.94035  0.95261  1.0000
  P   P1        1.0  0.97058  0.20339  0.72701  1.0000
  P   P2        1.0  0.02945  0.79662  0.27299  1.0000
  P   P3        1.0  0.63720  0.99164  0.77284  1.0000
  P   P4        1.0  0.36283  0.00836  0.22716  1.0000
  H   H1        1.0  0.33715  0.85934  0.66155  1.0000
  H   H2        1.0  0.66281  0.14066  0.33845  1.0000
  H   H3        1.0  0.17672  0.82449  0.56877  1.0000
  H   H4        1.0  0.82324  0.17548  0.43126  1.0000
  H   H5        1.0  0.89296  0.23345  0.20169  1.0000
  H   H6        1.0  0.10703  0.76656  0.79833  1.0000
  H   H7        1.0  0.09096  0.18474  0.10278  1.0000
  H   H8        1.0  0.90903  0.81527  0.89723  1.0000
  H   H9        1.0  0.50023  0.15963  0.97530  1.0000
  H   H10       1.0  0.49976  0.84036  0.02468  1.0000
  H   H11       1.0  0.80656  0.71478  0.55585  1.0000
  H   H12       1.0  0.19349  0.28521  0.44412  1.0000
  H   H13       1.0  0.80290  0.48639  0.46972  1.0000
  H   H14       1.0  0.19709  0.51357  0.53027  1.0000
  H   H15       1.0  0.57838  0.70289  0.81308  1.0000
  H   H16       1.0  0.42165  0.29714  0.18687  1.0000
  H   H17       1.0  0.41209  0.43418  0.89007  1.0000
  H   H18       1.0  0.58792  0.56585  0.10992  1.0000
  H   H19       1.0  0.59170  0.25654  0.56403  1.0000
  H   H20       1.0  0.40828  0.74346  0.43599  1.0000
  H   H21       1.0  0.40460  0.24472  0.72635  1.0000
  H   H22       1.0  0.59543  0.75527  0.27366  1.0000
  C   C1        1.0  0.72183  0.50576  0.57496  1.0000
  C   C2        1.0  0.27815  0.49423  0.42502  1.0000
  C   C3        1.0  0.60170  0.61643  0.75662  1.0000
  C   C4        1.0  0.39830  0.38358  0.24337  1.0000
  C   C5        1.0  0.52118  0.48433  0.79539  1.0000
  C   C6        1.0  0.47881  0.51568  0.20459  1.0000
  C   C7        1.0  0.56335  0.27087  0.68034  1.0000
  C   C8        1.0  0.43665  0.72914  0.31966  1.0000
  C   C9        1.0  0.69152  0.17759  0.77459  1.0000
  C   C10       1.0  0.30849  0.82242  0.22540  1.0000
  N   N1        1.0  0.59822  0.41719  0.68068  1.0000
  N   N2        1.0  0.40176  0.58281  0.31931  1.0000
  N   N3        1.0  0.72435  0.62707  0.61958  1.0000
  N   N4        1.0  0.27566  0.37291  0.38040  1.0000
  O   O1        1.0  0.03012  0.16395  0.56829  1.0000
  O   O2        1.0  0.96990  0.83605  0.43171  1.0000
  O   O3        1.0  0.26386  0.78091  0.63713  1.0000
  O   O4        1.0  0.73608  0.21907  0.36292  1.0000
  O   O5        1.0  0.02679  0.09114  0.85357  1.0000
  O   O6        1.0  0.97321  0.90886  0.14644  1.0000
  O   O7        1.0  0.95523  0.21920  0.09968  1.0000
  O   O8        1.0  0.04474  0.78081  0.90035  1.0000
  O   O9        1.0  0.04353  0.34867  0.71839  1.0000
  O   O10       1.0  0.95651  0.65134  0.28161  1.0000
  O   O11       1.0  0.76224  0.94663  0.63650  1.0000
  O   O12       1.0  0.23780  0.05336  0.36352  1.0000
  O   O13       1.0  0.68802  0.91304  0.92410  1.0000
  O   O14       1.0  0.31194  0.08697  0.07593  1.0000
  O   O15       1.0  0.41413  0.97066  0.76927  1.0000
  O   O16       1.0  0.58590  0.02935  0.23071  1.0000
  O   O17       1.0  0.64282  0.19741  0.92733  1.0000
  O   O18       1.0  0.35718  0.80260  0.07269  1.0000
