data_image0
_chemical_formula_structural       Mg2H20C24S2O10
_chemical_formula_sum              "Mg2 H20 C24 S2 O10"
_cell_length_a       5.96272
_cell_length_b       11.2171
_cell_length_c       11.2167
_cell_angle_alpha    108.993
_cell_angle_beta     105.032
_cell_angle_gamma    105.031

_space_group_name_H-M_alt    "P 1"
_space_group_IT_number       1

loop_
  _space_group_symop_operation_xyz
  'x, y, z'

loop_
  _atom_site_type_symbol
  _atom_site_label
  _atom_site_symmetry_multiplicity
  _atom_site_fract_x
  _atom_site_fract_y
  _atom_site_fract_z
  _atom_site_occupancy
  Mg  Mg1       1.0  0.24999  0.52704  0.97295  1.0000
  Mg  Mg2       1.0  0.74999  0.47296  0.02705  1.0000
  H   H1        1.0  0.14041  0.68742  0.84688  1.0000
  H   H2        1.0  0.35956  0.65310  0.81256  1.0000
  H   H3        1.0  0.85959  0.31258  0.15311  1.0000
  H   H4        1.0  0.64044  0.34690  0.18743  1.0000
  H   H5        1.0  0.49326  0.82469  0.24549  1.0000
  H   H6        1.0  0.00675  0.25450  0.67529  1.0000
  H   H7        1.0  0.50672  0.17530  0.75451  1.0000
  H   H8        1.0  0.99326  0.74550  0.32470  1.0000
  H   H9        1.0  0.56980  0.07151  0.33701  1.0000
  H   H10       1.0  0.93020  0.16298  0.42846  1.0000
  H   H11       1.0  0.43020  0.92848  0.66300  1.0000
  H   H12       1.0  0.06982  0.83702  0.57153  1.0000
  H   H13       1.0  0.80344  0.98131  0.09737  1.0000
  H   H14       1.0  0.69654  0.40263  0.51867  1.0000
  H   H15       1.0  0.19656  0.01870  0.90264  1.0000
  H   H16       1.0  0.30347  0.59737  0.48134  1.0000
  H   H17       1.0  0.72755  0.73482  0.00465  1.0000
  H   H18       1.0  0.77244  0.49535  0.76516  1.0000
  H   H19       1.0  0.27245  0.26519  0.99535  1.0000
  H   H20       1.0  0.22756  0.50466  0.23484  1.0000
  C   C1        1.0  0.10368  0.76201  0.11856  1.0000
  C   C2        1.0  0.39632  0.38144  0.73798  1.0000
  C   C3        1.0  0.89631  0.23799  0.88144  1.0000
  C   C4        1.0  0.60368  0.61856  0.26202  1.0000
  C   C5        1.0  0.34308  0.85917  0.21281  1.0000
  C   C6        1.0  0.15692  0.28718  0.64082  1.0000
  C   C7        1.0  0.65690  0.14082  0.78719  1.0000
  C   C8        1.0  0.84308  0.71282  0.35918  1.0000
  C   C9        1.0  0.38554  0.99691  0.26441  1.0000
  C   C10       1.0  0.11448  0.23559  0.50307  1.0000
  C   C11       1.0  0.61446  0.00308  0.73559  1.0000
  C   C12       1.0  0.88553  0.76442  0.49693  1.0000
  C   C13       1.0  0.19106  0.04051  0.22296  1.0000
  C   C14       1.0  0.30891  0.27702  0.45946  1.0000
  C   C15       1.0  0.80894  0.95949  0.77705  1.0000
  C   C16       1.0  0.69110  0.72298  0.54054  1.0000
  C   C17       1.0  0.95254  0.94622  0.13014  1.0000
  C   C18       1.0  0.54745  0.36985  0.55376  1.0000
  C   C19       1.0  0.04747  0.05378  0.86986  1.0000
  C   C20       1.0  0.45255  0.63015  0.44624  1.0000
  C   C21       1.0  0.91092  0.80865  0.07865  1.0000
  C   C22       1.0  0.58907  0.42135  0.69133  1.0000
  C   C23       1.0  0.08908  0.19135  0.92135  1.0000
  C   C24       1.0  0.41094  0.57866  0.30868  1.0000
  S   S1        1.0  0.25002  0.21550  0.28449  1.0000
  S   S2        1.0  0.75002  0.78450  0.71551  1.0000
  O   O1        1.0  0.05950  0.62881  0.06830  1.0000
  O   O2        1.0  0.44049  0.43170  0.87118  1.0000
  O   O3        1.0  0.94049  0.37119  0.93169  1.0000
  O   O4        1.0  0.55949  0.56830  0.12882  1.0000
  O   O5        1.0  0.24996  0.63688  0.86308  1.0000
  O   O6        1.0  0.75003  0.36311  0.13692  1.0000
  O   O7        1.0  0.48119  0.28548  0.27306  1.0000
  O   O8        1.0  0.01872  0.22689  0.21448  1.0000
  O   O9        1.0  0.51880  0.71451  0.72694  1.0000
  O   O10       1.0  0.98128  0.77311  0.78552  1.0000
