data_image0
_chemical_formula_structural       Ca2H16C24S2O8
_chemical_formula_sum              "Ca2 H16 C24 S2 O8"
_cell_length_a       7.07065
_cell_length_b       9.35327
_cell_length_c       9.35327
_cell_angle_alpha    95.5574
_cell_angle_beta     90.0001
_cell_angle_gamma    89.9998

_space_group_name_H-M_alt    "P 1"
_space_group_IT_number       1

loop_
  _space_group_symop_operation_xyz
  'x, y, z'

loop_
  _atom_site_type_symbol
  _atom_site_label
  _atom_site_symmetry_multiplicity
  _atom_site_fract_x
  _atom_site_fract_y
  _atom_site_fract_z
  _atom_site_occupancy
  Ca  Ca1       1.0  0.50000  0.50000  0.50000  1.0000
  Ca  Ca2       1.0  0.00000  0.50000  0.50000  1.0000
  H   H1        1.0  0.55556  0.62633  0.80958  1.0000
  H   H2        1.0  0.05556  0.37367  0.19042  1.0000
  H   H3        1.0  0.44444  0.80958  0.62633  1.0000
  H   H4        1.0  0.94444  0.19042  0.37367  1.0000
  H   H5        1.0  0.44444  0.37367  0.19042  1.0000
  H   H6        1.0  0.94444  0.62633  0.80958  1.0000
  H   H7        1.0  0.55556  0.19042  0.37367  1.0000
  H   H8        1.0  0.05556  0.80957  0.62634  1.0000
  H   H9        1.0  0.55538  0.68000  0.07418  1.0000
  H   H10       1.0  0.05538  0.32001  0.92582  1.0000
  H   H11       1.0  0.44462  0.07418  0.67999  1.0000
  H   H12       1.0  0.94462  0.92582  0.32001  1.0000
  H   H13       1.0  0.44461  0.32000  0.92582  1.0000
  H   H14       1.0  0.94461  0.68000  0.07418  1.0000
  H   H15       1.0  0.55538  0.92582  0.32000  1.0000
  H   H16       1.0  0.05539  0.07417  0.68000  1.0000
  C   C1        1.0  0.25000  0.62264  0.78917  1.0000
  C   C2        1.0  0.75000  0.37736  0.21083  1.0000
  C   C3        1.0  0.75000  0.78917  0.62264  1.0000
  C   C4        1.0  0.25000  0.21083  0.37736  1.0000
  C   C5        1.0  0.42193  0.63992  0.86741  1.0000
  C   C6        1.0  0.92194  0.36008  0.13259  1.0000
  C   C7        1.0  0.57807  0.86741  0.63992  1.0000
  C   C8        1.0  0.07806  0.13259  0.36008  1.0000
  C   C9        1.0  0.57807  0.36008  0.13259  1.0000
  C   C10       1.0  0.07806  0.63993  0.86741  1.0000
  C   C11       1.0  0.42193  0.13260  0.36008  1.0000
  C   C12       1.0  0.92194  0.86741  0.63993  1.0000
  C   C13       1.0  0.42236  0.67051  0.01527  1.0000
  C   C14       1.0  0.92234  0.32949  0.98473  1.0000
  C   C15       1.0  0.57765  0.01527  0.67051  1.0000
  C   C16       1.0  0.07766  0.98473  0.32949  1.0000
  C   C17       1.0  0.57764  0.32949  0.98473  1.0000
  C   C18       1.0  0.07766  0.67051  0.01527  1.0000
  C   C19       1.0  0.42236  0.98473  0.32949  1.0000
  C   C20       1.0  0.92234  0.01527  0.67051  1.0000
  C   C21       1.0  0.25000  0.68453  0.08973  1.0000
  C   C22       1.0  0.75000  0.31547  0.91027  1.0000
  C   C23       1.0  0.75000  0.08973  0.68453  1.0000
  C   C24       1.0  0.25000  0.91027  0.31547  1.0000
  S   S1        1.0  0.25002  0.72425  0.27576  1.0000
  S   S2        1.0  0.74998  0.27575  0.72425  1.0000
  O   O1        1.0  0.25000  0.59115  0.64762  1.0000
  O   O2        1.0  0.75000  0.40885  0.35238  1.0000
  O   O3        1.0  0.75000  0.64762  0.59116  1.0000
  O   O4        1.0  0.25000  0.35238  0.40884  1.0000
  O   O5        1.0  0.42698  0.66856  0.33144  1.0000
  O   O6        1.0  0.92699  0.33144  0.66856  1.0000
  O   O7        1.0  0.57302  0.33143  0.66856  1.0000
  O   O8        1.0  0.07301  0.66856  0.33144  1.0000
