data_image0
_chemical_formula_structural       Ba2H12C12N16O8
_chemical_formula_sum              "Ba2 H12 C12 N16 O8"
_cell_length_a       4.74218
_cell_length_b       4.74219
_cell_length_c       25.6162
_cell_angle_alpha    86.3553
_cell_angle_beta     86.3552
_cell_angle_gamma    83.5396

_space_group_name_H-M_alt    "P 1"
_space_group_IT_number       1

loop_
  _space_group_symop_operation_xyz
  'x, y, z'

loop_
  _atom_site_type_symbol
  _atom_site_label
  _atom_site_symmetry_multiplicity
  _atom_site_fract_x
  _atom_site_fract_y
  _atom_site_fract_z
  _atom_site_occupancy
  Ba  Ba1       1.0  0.50000  0.50000  0.50000  1.0000
  Ba  Ba2       1.0  0.50000  0.50000  0.00000  1.0000
  H   H1        1.0  0.11745  0.31597  0.27845  1.0000
  H   H2        1.0  0.68403  0.88255  0.22155  1.0000
  H   H3        1.0  0.88255  0.68404  0.72155  1.0000
  H   H4        1.0  0.31597  0.11744  0.77845  1.0000
  H   H5        1.0  0.16091  0.93438  0.35797  1.0000
  H   H6        1.0  0.06562  0.83910  0.14203  1.0000
  H   H7        1.0  0.83910  0.06562  0.64203  1.0000
  H   H8        1.0  0.93438  0.16090  0.85797  1.0000
  H   H9        1.0  0.84058  0.90090  0.39667  1.0000
  H   H10       1.0  0.09910  0.15941  0.10333  1.0000
  H   H11       1.0  0.15941  0.09909  0.60333  1.0000
  H   H12       1.0  0.90090  0.84059  0.89667  1.0000
  C   C1        1.0  0.93033  0.39169  0.30285  1.0000
  C   C2        1.0  0.60831  0.06967  0.19715  1.0000
  C   C3        1.0  0.06967  0.60831  0.69715  1.0000
  C   C4        1.0  0.39168  0.93032  0.80285  1.0000
  C   C5        1.0  0.99270  0.05010  0.38222  1.0000
  C   C6        1.0  0.94990  0.00730  0.11778  1.0000
  C   C7        1.0  0.00730  0.94991  0.61778  1.0000
  C   C8        1.0  0.05009  0.99270  0.88222  1.0000
  C   C9        1.0  0.11890  0.16146  0.42958  1.0000
  C   C10       1.0  0.83854  0.88110  0.07042  1.0000
  C   C11       1.0  0.88110  0.83854  0.57042  1.0000
  C   C12       1.0  0.16146  0.11890  0.92958  1.0000
  N   N1        1.0  0.84705  0.27652  0.34998  1.0000
  N   N2        1.0  0.72348  0.15296  0.15002  1.0000
  N   N3        1.0  0.15296  0.72348  0.65002  1.0000
  N   N4        1.0  0.27651  0.84704  0.84998  1.0000
  N   N5        1.0  0.60224  0.42687  0.36704  1.0000
  N   N6        1.0  0.57313  0.39776  0.13296  1.0000
  N   N7        1.0  0.39776  0.57313  0.63296  1.0000
  N   N8        1.0  0.42688  0.60224  0.86705  1.0000
  N   N9        1.0  0.54103  0.62535  0.33063  1.0000
  N   N10       1.0  0.37465  0.45897  0.16937  1.0000
  N   N11       1.0  0.45897  0.37465  0.66937  1.0000
  N   N12       1.0  0.62535  0.54103  0.83063  1.0000
  N   N13       1.0  0.74107  0.60941  0.29017  1.0000
  N   N14       1.0  0.39059  0.25893  0.20983  1.0000
  N   N15       1.0  0.25894  0.39060  0.70983  1.0000
  N   N16       1.0  0.60940  0.74107  0.79017  1.0000
  O   O1        1.0  0.01818  0.40320  0.44493  1.0000
  O   O2        1.0  0.59680  0.98183  0.05507  1.0000
  O   O3        1.0  0.98182  0.59680  0.55507  1.0000
  O   O4        1.0  0.40320  0.01818  0.94493  1.0000
  O   O5        1.0  0.31591  0.00183  0.45130  1.0000
  O   O6        1.0  0.99818  0.68409  0.04870  1.0000
  O   O7        1.0  0.68409  0.99817  0.54869  1.0000
  O   O8        1.0  0.00183  0.31591  0.95131  1.0000
