data_image0
_chemical_formula_structural       NiH24C26S4N6
_chemical_formula_sum              "Ni1 H24 C26 S4 N6"
_cell_length_a       7.24652
_cell_length_b       9.99556
_cell_length_c       9.98969
_cell_angle_alpha    111.668
_cell_angle_beta     99.9832
_cell_angle_gamma    100.011

_space_group_name_H-M_alt    "P 1"
_space_group_IT_number       1

loop_
  _space_group_symop_operation_xyz
  'x, y, z'

loop_
  _atom_site_type_symbol
  _atom_site_label
  _atom_site_symmetry_multiplicity
  _atom_site_fract_x
  _atom_site_fract_y
  _atom_site_fract_z
  _atom_site_occupancy
  Ni  Ni1       1.0  0.50000  0.50000  0.50000  1.0000
  H   H1        1.0  0.32935  0.58588  0.72008  1.0000
  H   H2        1.0  0.67056  0.27829  0.41366  1.0000
  H   H3        1.0  0.67065  0.41412  0.27992  1.0000
  H   H4        1.0  0.32944  0.72171  0.58634  1.0000
  H   H5        1.0  0.33910  0.41073  0.67441  1.0000
  H   H6        1.0  0.66071  0.32403  0.58895  1.0000
  H   H7        1.0  0.66091  0.58927  0.32558  1.0000
  H   H8        1.0  0.33929  0.67597  0.41105  1.0000
  H   H9        1.0  0.81115  0.88099  0.15440  1.0000
  H   H10       1.0  0.18803  0.84448  0.11846  1.0000
  H   H11       1.0  0.18885  0.11901  0.84560  1.0000
  H   H12       1.0  0.81196  0.15552  0.88154  1.0000
  H   H13       1.0  0.56520  0.79581  0.91671  1.0000
  H   H14       1.0  0.43514  0.08139  0.20371  1.0000
  H   H15       1.0  0.43480  0.20419  0.08329  1.0000
  H   H16       1.0  0.56486  0.91861  0.79629  1.0000
  H   H17       1.0  0.60519  0.34397  0.80839  1.0000
  H   H18       1.0  0.39409  0.19027  0.65570  1.0000
  H   H19       1.0  0.39481  0.65603  0.19162  1.0000
  H   H20       1.0  0.60590  0.80973  0.34430  1.0000
  H   H21       1.0  0.84927  0.42810  0.04555  1.0000
  H   H22       1.0  0.14928  0.95363  0.57151  1.0000
  H   H23       1.0  0.15072  0.57190  0.95445  1.0000
  H   H24       1.0  0.85072  0.04637  0.42849  1.0000
  C   C1        1.0  0.76653  0.76305  0.07879  1.0000
  C   C2        1.0  0.23269  0.91999  0.23647  1.0000
  C   C3        1.0  0.23347  0.23695  0.92121  1.0000
  C   C4        1.0  0.76731  0.08001  0.76353  1.0000
  C   C5        1.0  0.62932  0.71528  0.94385  1.0000
  C   C6        1.0  0.37048  0.05461  0.28428  1.0000
  C   C7        1.0  0.37068  0.28472  0.05615  1.0000
  C   C8        1.0  0.62952  0.94539  0.71573  1.0000
  C   C9        1.0  0.56605  0.56399  0.84493  1.0000
  C   C10       1.0  0.43373  0.15362  0.43561  1.0000
  C   C11       1.0  0.43395  0.43601  0.15507  1.0000
  C   C12       1.0  0.56627  0.84638  0.56439  1.0000
  C   C13       1.0  0.65009  0.46215  0.88197  1.0000
  C   C14       1.0  0.34913  0.11678  0.53745  1.0000
  C   C15       1.0  0.34990  0.53785  0.11803  1.0000
  C   C16       1.0  0.65087  0.88323  0.46255  1.0000
  C   C17       1.0  0.78802  0.50901  0.01655  1.0000
  C   C18       1.0  0.21077  0.98246  0.49055  1.0000
  C   C19       1.0  0.21198  0.49099  0.98345  1.0000
  C   C20       1.0  0.78922  0.01754  0.50945  1.0000
  C   C21       1.0  0.84595  0.65934  0.11685  1.0000
  C   C22       1.0  0.15270  0.88219  0.34016  1.0000
  C   C23       1.0  0.15405  0.34066  0.88314  1.0000
  C   C24       1.0  0.84729  0.11782  0.65984  1.0000
  C   C25       1.0  0.07336  0.32910  0.32869  1.0000
  C   C26       1.0  0.92667  0.67091  0.67132  1.0000
  S   S1        1.0  0.99905  0.70542  0.29384  1.0000
  S   S2        1.0  0.00094  0.29458  0.70616  1.0000
  S   S3        1.0  0.85529  0.22944  0.22862  1.0000
  S   S4        1.0  0.14471  0.77056  0.77137  1.0000
  N   N1        1.0  0.42217  0.51735  0.71009  1.0000
  N   N2        1.0  0.57779  0.28819  0.48224  1.0000
  N   N3        1.0  0.57783  0.48265  0.28991  1.0000
  N   N4        1.0  0.42221  0.71181  0.51776  1.0000
  N   N5        1.0  0.23263  0.39994  0.39972  1.0000
  N   N6        1.0  0.76735  0.60004  0.60026  1.0000
