data_image0
_chemical_formula_structural       Li2H22C24S2O10
_chemical_formula_sum              "Li2 H22 C24 S2 O10"
_cell_length_a       6.05117
_cell_length_b       10.5967
_cell_length_c       10.7928
_cell_angle_alpha    74.0005
_cell_angle_beta     89.6674
_cell_angle_gamma    74.2214

_space_group_name_H-M_alt    "P 1"
_space_group_IT_number       1

loop_
  _space_group_symop_operation_xyz
  'x, y, z'

loop_
  _atom_site_type_symbol
  _atom_site_label
  _atom_site_symmetry_multiplicity
  _atom_site_fract_x
  _atom_site_fract_y
  _atom_site_fract_z
  _atom_site_occupancy
  Li  Li1       1.0  0.25495  0.56854  0.61391  1.0000
  Li  Li2       1.0  0.74504  0.43147  0.38609  1.0000
  H   H1        1.0  0.64409  0.60720  0.64768  1.0000
  H   H2        1.0  0.35593  0.39280  0.35232  1.0000
  H   H3        1.0  0.69280  0.46580  0.60951  1.0000
  H   H4        1.0  0.30721  0.53420  0.39049  1.0000
  H   H5        1.0  0.06315  0.37148  0.63802  1.0000
  H   H6        1.0  0.93684  0.62852  0.36198  1.0000
  H   H7        1.0  0.46220  0.74412  0.35300  1.0000
  H   H8        1.0  0.53781  0.25587  0.64699  1.0000
  H   H9        1.0  0.45158  0.98949  0.27102  1.0000
  H   H10       1.0  0.54843  0.01050  0.72899  1.0000
  H   H11       1.0  0.73316  0.10790  0.34541  1.0000
  H   H12       1.0  0.26684  0.89210  0.65458  1.0000
  H   H13       1.0  0.74558  0.86105  0.42817  1.0000
  H   H14       1.0  0.25442  0.13895  0.57182  1.0000
  H   H15       1.0  0.42536  0.34724  0.10439  1.0000
  H   H16       1.0  0.57464  0.65277  0.89561  1.0000
  H   H17       1.0  0.45588  0.41684  0.86450  1.0000
  H   H18       1.0  0.54411  0.58317  0.13550  1.0000
  H   H19       1.0  0.86172  0.28119  0.81048  1.0000
  H   H20       1.0  0.13828  0.71880  0.18953  1.0000
  H   H21       1.0  0.83100  0.21305  0.04608  1.0000
  H   H22       1.0  0.16900  0.78695  0.95393  1.0000
  C   C1        1.0  0.10299  0.78649  0.39461  1.0000
  C   C2        1.0  0.89701  0.21350  0.60538  1.0000
  C   C3        1.0  0.30326  0.82415  0.35066  1.0000
  C   C4        1.0  0.69675  0.17586  0.64933  1.0000
  C   C5        1.0  0.29712  0.96094  0.30495  1.0000
  C   C6        1.0  0.70288  0.03906  0.69505  1.0000
  C   C7        1.0  0.09168  0.06227  0.30342  1.0000
  C   C8        1.0  0.90832  0.93773  0.69656  1.0000
  C   C9        1.0  0.89066  0.02779  0.34537  1.0000
  C   C10       1.0  0.10934  0.97221  0.65462  1.0000
  C   C11       1.0  0.89734  0.89063  0.39071  1.0000
  C   C12       1.0  0.10267  0.10938  0.60928  1.0000
  C   C13       1.0  0.12603  0.27711  0.08860  1.0000
  C   C14       1.0  0.87397  0.72289  0.91140  1.0000
  C   C15       1.0  0.30355  0.33315  0.03892  1.0000
  C   C16       1.0  0.69646  0.66685  0.96107  1.0000
  C   C17       1.0  0.32087  0.37157  0.90598  1.0000
  C   C18       1.0  0.67914  0.62842  0.09403  1.0000
  C   C19       1.0  0.16111  0.35406  0.82256  1.0000
  C   C20       1.0  0.83885  0.64595  0.17743  1.0000
  C   C21       1.0  0.98494  0.29609  0.87407  1.0000
  C   C22       1.0  0.01503  0.70392  0.12595  1.0000
  C   C23       1.0  0.96769  0.25790  0.00659  1.0000
  C   C24       1.0  0.03229  0.74211  0.99340  1.0000
  S   S1        1.0  0.09304  0.23399  0.25580  1.0000
  S   S2        1.0  0.90697  0.76600  0.74421  1.0000
  O   O1        1.0  0.10714  0.65433  0.43786  1.0000
  O   O2        1.0  0.89286  0.34566  0.56214  1.0000
  O   O3        1.0  0.57374  0.53781  0.63526  1.0000
  O   O4        1.0  0.42625  0.46219  0.36475  1.0000
  O   O5        1.0  0.18164  0.39521  0.69339  1.0000
  O   O6        1.0  0.81836  0.60480  0.30661  1.0000
  O   O7        1.0  0.29398  0.24752  0.31993  1.0000
  O   O8        1.0  0.70603  0.75247  0.68007  1.0000
  O   O9        1.0  0.86542  0.31466  0.27670  1.0000
  O   O10       1.0  0.13459  0.68534  0.72332  1.0000
