data_image0
_chemical_formula_structural       Zn4H24C32N16O12
_chemical_formula_sum              "Zn4 H24 C32 N16 O12"
_cell_length_a       8.96128
_cell_length_b       10.0487
_cell_length_c       10.8837
_cell_angle_alpha    89.9999
_cell_angle_beta     110.647
_cell_angle_gamma    89.9997

_space_group_name_H-M_alt    "P 1"
_space_group_IT_number       1

loop_
  _space_group_symop_operation_xyz
  'x, y, z'

loop_
  _atom_site_type_symbol
  _atom_site_label
  _atom_site_symmetry_multiplicity
  _atom_site_fract_x
  _atom_site_fract_y
  _atom_site_fract_z
  _atom_site_occupancy
  Zn  Zn1       1.0  0.21837  0.73935  0.34862  1.0000
  Zn  Zn2       1.0  0.28162  0.23935  0.65138  1.0000
  Zn  Zn3       1.0  0.78163  0.26065  0.65139  1.0000
  Zn  Zn4       1.0  0.71838  0.76065  0.34862  1.0000
  H   H1        1.0  0.13896  0.02876  0.43312  1.0000
  H   H2        1.0  0.36104  0.52876  0.56688  1.0000
  H   H3        1.0  0.86104  0.97124  0.56688  1.0000
  H   H4        1.0  0.63896  0.47123  0.43312  1.0000
  H   H5        1.0  0.72757  0.67001  0.79624  1.0000
  H   H6        1.0  0.77243  0.17001  0.20376  1.0000
  H   H7        1.0  0.27243  0.32999  0.20376  1.0000
  H   H8        1.0  0.22757  0.82999  0.79624  1.0000
  H   H9        1.0  0.88073  0.96278  0.95028  1.0000
  H   H10       1.0  0.61927  0.46278  0.04972  1.0000
  H   H11       1.0  0.11927  0.03722  0.04972  1.0000
  H   H12       1.0  0.38073  0.53722  0.95028  1.0000
  H   H13       1.0  0.89790  0.78611  0.94755  1.0000
  H   H14       1.0  0.60209  0.28612  0.05245  1.0000
  H   H15       1.0  0.10209  0.21388  0.05245  1.0000
  H   H16       1.0  0.39791  0.71389  0.94755  1.0000
  H   H17       1.0  0.72688  0.94721  0.09790  1.0000
  H   H18       1.0  0.77311  0.44721  0.90209  1.0000
  H   H19       1.0  0.27312  0.05279  0.90210  1.0000
  H   H20       1.0  0.22689  0.55279  0.09791  1.0000
  H   H21       1.0  0.70102  0.77468  0.07315  1.0000
  H   H22       1.0  0.79898  0.27468  0.92685  1.0000
  H   H23       1.0  0.29898  0.22532  0.92685  1.0000
  H   H24       1.0  0.20102  0.72532  0.07316  1.0000
  C   C1        1.0  0.24371  0.98609  0.50746  1.0000
  C   C2        1.0  0.25628  0.48609  0.49254  1.0000
  C   C3        1.0  0.75629  0.01391  0.49254  1.0000
  C   C4        1.0  0.74372  0.51391  0.50746  1.0000
  C   C5        1.0  0.42981  0.84735  0.61258  1.0000
  C   C6        1.0  0.07018  0.34734  0.38742  1.0000
  C   C7        1.0  0.57019  0.15266  0.38742  1.0000
  C   C8        1.0  0.92982  0.65266  0.61258  1.0000
  C   C9        1.0  0.44985  0.96559  0.68541  1.0000
  C   C10       1.0  0.05014  0.46558  0.31458  1.0000
  C   C11       1.0  0.55014  0.03441  0.31459  1.0000
  C   C12       1.0  0.94986  0.53441  0.68542  1.0000
  C   C13       1.0  0.57588  0.97827  0.80980  1.0000
  C   C14       1.0  0.92412  0.47827  0.19020  1.0000
  C   C15       1.0  0.42412  0.02173  0.19020  1.0000
  C   C16       1.0  0.07588  0.52173  0.80980  1.0000
  C   C17       1.0  0.64319  0.75166  0.75938  1.0000
  C   C18       1.0  0.85681  0.25166  0.24062  1.0000
  C   C19       1.0  0.35681  0.24834  0.24062  1.0000
  C   C20       1.0  0.14319  0.74834  0.75938  1.0000
  C   C21       1.0  0.82094  0.86847  0.95419  1.0000
  C   C22       1.0  0.67905  0.36847  0.04581  1.0000
  C   C23       1.0  0.17906  0.13153  0.04581  1.0000
  C   C24       1.0  0.32094  0.63153  0.95419  1.0000
  C   C25       1.0  0.78515  0.85644  0.08061  1.0000
  C   C26       1.0  0.71485  0.35644  0.91938  1.0000
  C   C27       1.0  0.21485  0.14356  0.91939  1.0000
  C   C28       1.0  0.28515  0.64356  0.08062  1.0000
  C   C29       1.0  0.93124  0.82760  0.19883  1.0000
  C   C30       1.0  0.56876  0.32760  0.80117  1.0000
  C   C31       1.0  0.06876  0.17240  0.80117  1.0000
  C   C32       1.0  0.43124  0.67240  0.19883  1.0000
  N   N1        1.0  0.29887  0.86222  0.50008  1.0000
  N   N2        1.0  0.20113  0.36222  0.49992  1.0000
  N   N3        1.0  0.70113  0.13778  0.49992  1.0000
  N   N4        1.0  0.79887  0.63778  0.50008  1.0000
  N   N5        1.0  0.33010  0.05255  0.61682  1.0000
  N   N6        1.0  0.16989  0.55255  0.38318  1.0000
  N   N7        1.0  0.66990  0.94745  0.38318  1.0000
  N   N8        1.0  0.83011  0.44745  0.61682  1.0000
  N   N9        1.0  0.52287  0.73678  0.64894  1.0000
  N   N10       1.0  0.97713  0.23677  0.35106  1.0000
  N   N11       1.0  0.47713  0.26323  0.35106  1.0000
  N   N12       1.0  0.02287  0.76323  0.64894  1.0000
  N   N13       1.0  0.67593  0.86337  0.83656  1.0000
  N   N14       1.0  0.82407  0.36336  0.16344  1.0000
  N   N15       1.0  0.32407  0.13664  0.16344  1.0000
  N   N16       1.0  0.17593  0.63664  0.83656  1.0000
  O   O1        1.0  0.60421  0.07098  0.88997  1.0000
  O   O2        1.0  0.89579  0.57097  0.11003  1.0000
  O   O3        1.0  0.39580  0.92903  0.11003  1.0000
  O   O4        1.0  0.10421  0.42902  0.88997  1.0000
  O   O5        1.0  0.91718  0.79248  0.30677  1.0000
  O   O6        1.0  0.58282  0.29248  0.69323  1.0000
  O   O7        1.0  0.08282  0.20752  0.69323  1.0000
  O   O8        1.0  0.41718  0.70752  0.30677  1.0000
  O   O9        1.0  0.06976  0.83775  0.19043  1.0000
  O   O10       1.0  0.43024  0.33775  0.80957  1.0000
  O   O11       1.0  0.93024  0.16225  0.80957  1.0000
  O   O12       1.0  0.56976  0.66225  0.19043  1.0000
