data_image0
_chemical_formula_structural       Cd2H26C40N2O10
_chemical_formula_sum              "Cd2 H26 C40 N2 O10"
_cell_length_a       7.64499
_cell_length_b       10.1197
_cell_length_c       12.1293
_cell_angle_alpha    84.0596
_cell_angle_beta     83.8256
_cell_angle_gamma    84.1253

_space_group_name_H-M_alt    "P 1"
_space_group_IT_number       1

loop_
  _space_group_symop_operation_xyz
  'x, y, z'

loop_
  _atom_site_type_symbol
  _atom_site_label
  _atom_site_symmetry_multiplicity
  _atom_site_fract_x
  _atom_site_fract_y
  _atom_site_fract_z
  _atom_site_occupancy
  Cd  Cd1       1.0  0.25298  0.48752  0.47546  1.0000
  Cd  Cd2       1.0  0.74701  0.51248  0.52454  1.0000
  H   H1        1.0  0.99743  0.69997  0.34705  1.0000
  H   H2        1.0  0.00257  0.30003  0.65295  1.0000
  H   H3        1.0  0.94839  0.94609  0.29454  1.0000
  H   H4        1.0  0.05162  0.05391  0.70545  1.0000
  H   H5        1.0  0.14841  0.09704  0.36182  1.0000
  H   H6        1.0  0.85159  0.90297  0.63818  1.0000
  H   H7        1.0  0.40287  0.74970  0.53590  1.0000
  H   H8        1.0  0.59713  0.25030  0.46410  1.0000
  H   H9        1.0  0.37154  0.12729  0.48384  1.0000
  H   H10       1.0  0.62846  0.87271  0.51616  1.0000
  H   H11       1.0  0.61037  0.48160  0.79065  1.0000
  H   H12       1.0  0.38963  0.51839  0.20935  1.0000
  H   H13       1.0  0.76527  0.37031  0.95068  1.0000
  H   H14       1.0  0.23473  0.62968  0.04933  1.0000
  H   H15       1.0  0.55992  0.99996  0.90622  1.0000
  H   H16       1.0  0.44007  0.00004  0.09379  1.0000
  H   H17       1.0  0.40094  0.11386  0.74774  1.0000
  H   H18       1.0  0.59906  0.88614  0.25226  1.0000
  H   H19       1.0  0.58938  0.25882  0.17420  1.0000
  H   H20       1.0  0.41061  0.74118  0.82580  1.0000
  H   H21       1.0  0.73501  0.37689  0.30278  1.0000
  H   H22       1.0  0.26499  0.62311  0.69722  1.0000
  H   H23       1.0  0.24545  0.22067  0.16163  1.0000
  H   H24       1.0  0.75455  0.77933  0.83837  1.0000
  H   H25       1.0  0.09904  0.10667  0.02675  1.0000
  H   H26       1.0  0.90096  0.89333  0.97325  1.0000
  C   C1        1.0  0.07816  0.76957  0.37586  1.0000
  C   C2        1.0  0.92185  0.23043  0.62413  1.0000
  C   C3        1.0  0.05228  0.90642  0.34702  1.0000
  C   C4        1.0  0.94772  0.09358  0.65297  1.0000
  C   C5        1.0  0.16157  0.98985  0.38510  1.0000
  C   C6        1.0  0.83844  0.01015  0.61490  1.0000
  C   C7        1.0  0.29580  0.93561  0.45149  1.0000
  C   C8        1.0  0.70420  0.06440  0.54851  1.0000
  C   C9        1.0  0.30677  0.79736  0.48070  1.0000
  C   C10       1.0  0.69323  0.20265  0.51930  1.0000
  C   C11       1.0  0.41836  0.02146  0.48531  1.0000
  C   C12       1.0  0.58164  0.97855  0.51469  1.0000
  C   C13       1.0  0.49423  0.30513  0.76022  1.0000
  C   C14       1.0  0.50577  0.69486  0.23978  1.0000
  C   C15       1.0  0.59710  0.37662  0.81779  1.0000
  C   C16       1.0  0.40290  0.62337  0.18221  1.0000
  C   C17       1.0  0.68446  0.31457  0.90686  1.0000
  C   C18       1.0  0.31554  0.68543  0.09314  1.0000
  C   C19       1.0  0.67001  0.17858  0.93782  1.0000
  C   C20       1.0  0.32999  0.82142  0.06218  1.0000
  C   C21       1.0  0.56786  0.10574  0.88114  1.0000
  C   C22       1.0  0.43214  0.89425  0.11886  1.0000
  C   C23       1.0  0.47954  0.16932  0.79345  1.0000
  C   C24       1.0  0.52046  0.83068  0.20655  1.0000
  C   C25       1.0  0.83724  0.17747  0.09305  1.0000
  C   C26       1.0  0.16275  0.82253  0.90695  1.0000
  C   C27       1.0  0.73318  0.25172  0.17074  1.0000
  C   C28       1.0  0.26681  0.74828  0.82926  1.0000
  C   C29       1.0  0.81562  0.31713  0.24341  1.0000
  C   C30       1.0  0.18438  0.68287  0.75659  1.0000
  C   C31       1.0  0.00037  0.30611  0.24072  1.0000
  C   C32       1.0  0.99963  0.69389  0.75928  1.0000
  C   C33       1.0  0.10205  0.22972  0.16264  1.0000
  C   C34       1.0  0.89795  0.77028  0.83736  1.0000
  C   C35       1.0  0.02137  0.16597  0.08786  1.0000
  C   C36       1.0  0.97863  0.83403  0.91214  1.0000
  C   C37       1.0  0.41174  0.36965  0.66066  1.0000
  C   C38       1.0  0.58826  0.63035  0.33934  1.0000
  C   C39       1.0  0.08865  0.37101  0.32233  1.0000
  C   C40       1.0  0.91135  0.62899  0.67767  1.0000
  N   N1        1.0  0.20281  0.71685  0.44258  1.0000
  N   N2        1.0  0.79719  0.28315  0.55742  1.0000
  O   O1        1.0  0.30523  0.30910  0.61484  1.0000
  O   O2        1.0  0.69477  0.69090  0.38516  1.0000
  O   O3        1.0  0.45315  0.48695  0.62009  1.0000
  O   O4        1.0  0.54685  0.51305  0.37991  1.0000
  O   O5        1.0  0.00125  0.46269  0.37696  1.0000
  O   O6        1.0  0.99876  0.53731  0.62304  1.0000
  O   O7        1.0  0.24979  0.33374  0.33613  1.0000
  O   O8        1.0  0.75021  0.66626  0.66387  1.0000
  O   O9        1.0  0.75777  0.10735  0.02187  1.0000
  O   O10       1.0  0.24223  0.89265  0.97813  1.0000
