data_image0
_chemical_formula_structural       Mn2H38C40N4O12
_chemical_formula_sum              "Mn2 H38 C40 N4 O12"
_cell_length_a       9.67708
_cell_length_b       9.7376
_cell_length_c       11.4511
_cell_angle_alpha    70.0546
_cell_angle_beta     65.3989
_cell_angle_gamma    71.7208

_space_group_name_H-M_alt    "P 1"
_space_group_IT_number       1

loop_
  _space_group_symop_operation_xyz
  'x, y, z'

loop_
  _atom_site_type_symbol
  _atom_site_label
  _atom_site_symmetry_multiplicity
  _atom_site_fract_x
  _atom_site_fract_y
  _atom_site_fract_z
  _atom_site_occupancy
  Mn  Mn1       1.0  0.11268  0.31617  0.37796  1.0000
  Mn  Mn2       1.0  0.87383  0.67850  0.63348  1.0000
  H   H1        1.0  0.29595  0.24163  0.09906  1.0000
  H   H2        1.0  0.70839  0.73933  0.90327  1.0000
  H   H3        1.0  0.41127  0.13760  0.43308  1.0000
  H   H4        1.0  0.60051  0.84923  0.56384  1.0000
  H   H5        1.0  0.67764  0.00329  0.32404  1.0000
  H   H6        1.0  0.34031  0.99383  0.66711  1.0000
  H   H7        1.0  0.55623  0.11099  0.97575  1.0000
  H   H8        1.0  0.45641  0.88169  0.01854  1.0000
  H   H9        1.0  0.79860  0.94955  0.97883  1.0000
  H   H10       1.0  0.21872  0.05635  0.01070  1.0000
  H   H11       1.0  0.82222  0.85574  0.13354  1.0000
  H   H12       1.0  0.19963  0.15162  0.85435  1.0000
  H   H13       1.0  0.93503  0.05317  0.12609  1.0000
  H   H14       1.0  0.07703  0.96338  0.86120  1.0000
  H   H15       1.0  0.91627  0.32440  0.07467  1.0000
  H   H16       1.0  0.09020  0.69831  0.90648  1.0000
  H   H17       1.0  0.88883  0.57247  0.91666  1.0000
  H   H18       1.0  0.10673  0.44639  0.06400  1.0000
  H   H19       1.0  0.84662  0.38738  0.65832  1.0000
  H   H20       1.0  0.14029  0.61541  0.33573  1.0000
  H   H21       1.0  0.86688  0.14027  0.80375  1.0000
  H   H22       1.0  0.13242  0.86798  0.19063  1.0000
  H   H23       1.0  0.18740  0.56263  0.74478  1.0000
  H   H24       1.0  0.81684  0.44563  0.26724  1.0000
  H   H25       1.0  0.37779  0.47668  0.86319  1.0000
  H   H26       1.0  0.63440  0.52506  0.14266  1.0000
  H   H27       1.0  0.61340  0.28340  0.79524  1.0000
  H   H28       1.0  0.38968  0.71102  0.20916  1.0000
  H   H29       1.0  0.48219  0.27686  0.48325  1.0000
  H   H30       1.0  0.50440  0.73081  0.52538  1.0000
  H   H31       1.0  0.97030  0.11723  0.59467  1.0000
  H   H32       1.0  0.01963  0.86750  0.42334  1.0000
  H   H33       1.0  0.14174  0.02607  0.54166  1.0000
  H   H34       1.0  0.84626  0.95845  0.47744  1.0000
  H   H35       1.0  0.91980  0.17595  0.35435  1.0000
  H   H36       1.0  0.06352  0.80813  0.64360  1.0000
  H   H37       1.0  0.09099  0.08668  0.30707  1.0000
  H   H38       1.0  0.89184  0.89881  0.69525  1.0000
  C   C1        1.0  0.38419  0.18825  0.14523  1.0000
  C   C2        1.0  0.62391  0.79561  0.85393  1.0000
  C   C3        1.0  0.44921  0.12968  0.33134  1.0000
  C   C4        1.0  0.56205  0.85735  0.66523  1.0000
  C   C5        1.0  0.59693  0.05499  0.26998  1.0000
  C   C6        1.0  0.41794  0.93893  0.72385  1.0000
  C   C7        1.0  0.52928  0.11533  0.07693  1.0000
  C   C8        1.0  0.48196  0.87669  0.91780  1.0000
  C   C9        1.0  0.63923  0.04630  0.13958  1.0000
  C   C10       1.0  0.37448  0.95192  0.85336  1.0000
  C   C11       1.0  0.79698  0.96669  0.06955  1.0000
  C   C12       1.0  0.21965  0.04019  0.91978  1.0000
  C   C13       1.0  0.92673  0.05070  0.03376  1.0000
  C   C14       1.0  0.08493  0.96372  0.95435  1.0000
  C   C15       1.0  0.89585  0.20797  0.95337  1.0000
  C   C16       1.0  0.10953  0.80567  0.03514  1.0000
  C   C17       1.0  0.89847  0.33448  0.98375  1.0000
  C   C18       1.0  0.10434  0.68347  0.00005  1.0000
  C   C19       1.0  0.88139  0.47413  0.89626  1.0000
  C   C20       1.0  0.11310  0.54323  0.08773  1.0000
  C   C21       1.0  0.85672  0.37215  0.75285  1.0000
  C   C22       1.0  0.13249  0.63687  0.23877  1.0000
  C   C23       1.0  0.87199  0.23147  0.83530  1.0000
  C   C24       1.0  0.12614  0.77918  0.15674  1.0000
  C   C25       1.0  0.20465  0.46794  0.53996  1.0000
  C   C26       1.0  0.78802  0.53995  0.47284  1.0000
  C   C27       1.0  0.31952  0.42119  0.60967  1.0000
  C   C28       1.0  0.67753  0.58910  0.39995  1.0000
  C   C29       1.0  0.29192  0.47901  0.71583  1.0000
  C   C30       1.0  0.71081  0.52869  0.29346  1.0000
  C   C31       1.0  0.39785  0.43013  0.78199  1.0000
  C   C32       1.0  0.60843  0.57325  0.22444  1.0000
  C   C33       1.0  0.53074  0.32228  0.74380  1.0000
  C   C34       1.0  0.47109  0.67701  0.26139  1.0000
  C   C35       1.0  0.56185  0.26572  0.63625  1.0000
  C   C36       1.0  0.43375  0.73403  0.37027  1.0000
  C   C37       1.0  0.45634  0.31714  0.56909  1.0000
  C   C38       1.0  0.53730  0.68974  0.43852  1.0000
  C   C39       1.0  0.70647  0.15169  0.59324  1.0000
  C   C40       1.0  0.28180  0.83753  0.41702  1.0000
  N   N1        1.0  0.34362  0.19587  0.27070  1.0000
  N   N2        1.0  0.66646  0.78417  0.72807  1.0000
  N   N3        1.0  0.86135  0.49559  0.78008  1.0000
  N   N4        1.0  0.12642  0.51905  0.20594  1.0000
  O   O1        1.0  0.22481  0.39273  0.46086  1.0000
  O   O2        1.0  0.77552  0.62249  0.54463  1.0000
  O   O3        1.0  0.88552  0.41678  0.46291  1.0000
  O   O4        1.0  0.09679  0.58276  0.56158  1.0000
  O   O5        1.0  0.74479  0.12611  0.48034  1.0000
  O   O6        1.0  0.23853  0.85770  0.53300  1.0000
  O   O7        1.0  0.78275  0.08514  0.67234  1.0000
  O   O8        1.0  0.20313  0.89885  0.33978  1.0000
  O   O9        1.0  0.08046  0.12819  0.55387  1.0000
  O   O10       1.0  0.90909  0.85603  0.46580  1.0000
  O   O11       1.0  0.02557  0.18786  0.29052  1.0000
  O   O12       1.0  0.95681  0.79567  0.70788  1.0000
