data_image0
_chemical_formula_structural       Na2H24C10N14O8
_chemical_formula_sum              "Na2 H24 C10 N14 O8"
_cell_length_a       6.92519
_cell_length_b       9.36587
_cell_length_c       9.52339
_cell_angle_alpha    106.988
_cell_angle_beta     92.1088
_cell_angle_gamma    107.474

_space_group_name_H-M_alt    "P 1"
_space_group_IT_number       1

loop_
  _space_group_symop_operation_xyz
  'x, y, z'

loop_
  _atom_site_type_symbol
  _atom_site_label
  _atom_site_symmetry_multiplicity
  _atom_site_fract_x
  _atom_site_fract_y
  _atom_site_fract_z
  _atom_site_occupancy
  Na  Na1       1.0  0.49998  1.00000  0.50000  1.0000
  Na  Na2       1.0  0.99999  0.99999  0.50000  1.0000
  H   H1        1.0  0.21863  0.19743  0.34031  1.0000
  H   H2        1.0  0.78135  0.80256  0.65969  1.0000
  H   H3        1.0  0.16970  0.32746  0.46738  1.0000
  H   H4        1.0  0.83026  0.67252  0.53263  1.0000
  H   H5        1.0  0.32972  0.73714  0.58658  1.0000
  H   H6        1.0  0.67025  0.26287  0.41341  1.0000
  H   H7        1.0  0.50765  0.70901  0.49432  1.0000
  H   H8        1.0  0.49232  0.29098  0.50567  1.0000
  H   H9        1.0  0.22154  0.77784  0.35386  1.0000
  H   H10       1.0  0.77844  0.22215  0.64613  1.0000
  H   H11       1.0  0.20350  0.85395  0.22590  1.0000
  H   H12       1.0  0.79648  0.14604  0.77409  1.0000
  H   H13       1.0  0.29605  0.48308  0.00539  1.0000
  H   H14       1.0  0.70403  0.51694  0.99460  1.0000
  H   H15       1.0  0.13436  0.59246  0.08369  1.0000
  H   H16       1.0  0.86566  0.40751  0.91629  1.0000
  H   H17       1.0  0.40508  0.68401  0.11680  1.0000
  H   H18       1.0  0.59494  0.31603  0.88321  1.0000
  H   H19       1.0  0.23906  0.41222  0.77251  1.0000
  H   H20       1.0  0.76091  0.58778  0.22748  1.0000
  H   H21       1.0  0.41341  0.56050  0.71437  1.0000
  H   H22       1.0  0.58659  0.43948  0.28563  1.0000
  H   H23       1.0  0.14420  0.51994  0.67598  1.0000
  H   H24       1.0  0.85583  0.48009  0.32401  1.0000
  C   C1        1.0  0.26251  0.78700  0.90827  1.0000
  C   C2        1.0  0.73750  0.21301  0.09173  1.0000
  C   C3        1.0  0.24503  0.02288  0.04631  1.0000
  C   C4        1.0  0.75499  0.97712  0.95371  1.0000
  C   C5        1.0  0.26325  0.96853  0.78169  1.0000
  C   C6        1.0  0.73675  0.03148  0.21830  1.0000
  C   C7        1.0  0.27628  0.59878  0.03432  1.0000
  C   C8        1.0  0.72375  0.40122  0.96568  1.0000
  C   C9        1.0  0.26678  0.52784  0.75741  1.0000
  C   C10       1.0  0.73322  0.47217  0.24259  1.0000
  N   N1        1.0  0.24795  0.06828  0.92177  1.0000
  N   N2        1.0  0.75207  0.93172  0.07825  1.0000
  N   N3        1.0  0.26732  0.82568  0.78041  1.0000
  N   N4        1.0  0.73268  0.17432  0.21959  1.0000
  N   N5        1.0  0.25456  0.88279  0.04535  1.0000
  N   N6        1.0  0.74545  0.11721  0.95466  1.0000
  N   N7        1.0  0.22974  0.14419  0.15845  1.0000
  N   N8        1.0  0.77028  0.85582  0.84157  1.0000
  N   N9        1.0  0.23618  0.21757  0.95802  1.0000
  N   N10       1.0  0.76384  0.78243  0.04199  1.0000
  N   N11       1.0  0.26833  0.64236  0.89963  1.0000
  N   N12       1.0  0.73168  0.35765  0.10037  1.0000
  N   N13       1.0  0.22553  0.25907  0.09902  1.0000
  N   N14       1.0  0.77448  0.74093  0.90098  1.0000
  O   O1        1.0  0.21877  0.23772  0.45163  1.0000
  O   O2        1.0  0.78120  0.76227  0.54836  1.0000
  O   O3        1.0  0.18706  0.86417  0.33142  1.0000
  O   O4        1.0  0.81292  0.13582  0.66856  1.0000
  O   O5        1.0  0.36545  0.71092  0.48407  1.0000
  O   O6        1.0  0.63452  0.28908  0.51593  1.0000
  O   O7        1.0  0.27206  0.01842  0.67346  1.0000
  O   O8        1.0  0.72794  0.98158  0.32655  1.0000
