data_image0
_chemical_formula_structural       Zn2H34C30N4O14
_chemical_formula_sum              "Zn2 H34 C30 N4 O14"
_cell_length_a       9.01571
_cell_length_b       9.76359
_cell_length_c       10.6146
_cell_angle_alpha    101.277
_cell_angle_beta     95.6398
_cell_angle_gamma    113.345

_space_group_name_H-M_alt    "P 1"
_space_group_IT_number       1

loop_
  _space_group_symop_operation_xyz
  'x, y, z'

loop_
  _atom_site_type_symbol
  _atom_site_label
  _atom_site_symmetry_multiplicity
  _atom_site_fract_x
  _atom_site_fract_y
  _atom_site_fract_z
  _atom_site_occupancy
  Zn  Zn1       1.0  0.10269  0.34811  0.64352  1.0000
  Zn  Zn2       1.0  0.89731  0.65189  0.35648  1.0000
  H   H1        1.0  0.36807  0.70375  0.97681  1.0000
  H   H2        1.0  0.63193  0.29625  0.02319  1.0000
  H   H3        1.0  0.15317  0.60079  0.97172  1.0000
  H   H4        1.0  0.84683  0.39921  0.02828  1.0000
  H   H5        1.0  0.18091  0.50840  0.11569  1.0000
  H   H6        1.0  0.81908  0.49160  0.88431  1.0000
  H   H7        1.0  0.13503  0.31585  0.24510  1.0000
  H   H8        1.0  0.86496  0.68414  0.75490  1.0000
  H   H9        1.0  0.28084  0.04270  0.95571  1.0000
  H   H10       1.0  0.71915  0.95730  0.04428  1.0000
  H   H11       1.0  0.32336  0.23345  0.82495  1.0000
  H   H12       1.0  0.67663  0.76655  0.17505  1.0000
  H   H13       1.0  0.29859  0.93240  0.13206  1.0000
  H   H14       1.0  0.70141  0.06760  0.86794  1.0000
  H   H15       1.0  0.09905  0.86867  0.03698  1.0000
  H   H16       1.0  0.90095  0.13133  0.96302  1.0000
  H   H17       1.0  0.49837  0.52143  0.74402  1.0000
  H   H18       1.0  0.50163  0.47856  0.25598  1.0000
  H   H19       1.0  0.70090  0.41147  0.61681  1.0000
  H   H20       1.0  0.29911  0.58853  0.38319  1.0000
  H   H21       1.0  0.20677  0.14590  0.41837  1.0000
  H   H22       1.0  0.79324  0.85411  0.58163  1.0000
  H   H23       1.0  0.65437  0.21220  0.41708  1.0000
  H   H24       1.0  0.34564  0.78781  0.58293  1.0000
  H   H25       1.0  0.46960  0.14550  0.30136  1.0000
  H   H26       1.0  0.53041  0.85451  0.69864  1.0000
  H   H27       1.0  0.32919  0.93893  0.41342  1.0000
  H   H28       1.0  0.67082  0.06108  0.58658  1.0000
  H   H29       1.0  0.50252  0.92524  0.35848  1.0000
  H   H30       1.0  0.49749  0.07477  0.64152  1.0000
  H   H31       1.0  0.92075  0.34782  0.40893  1.0000
  H   H32       1.0  0.07925  0.65217  0.59107  1.0000
  H   H33       1.0  0.91774  0.18344  0.39857  1.0000
  H   H34       1.0  0.08227  0.81655  0.60143  1.0000
  C   C1        1.0  0.20723  0.66959  0.79833  1.0000
  C   C2        1.0  0.79276  0.33041  0.20167  1.0000
  C   C3        1.0  0.25161  0.61443  0.91476  1.0000
  C   C4        1.0  0.74839  0.38557  0.08524  1.0000
  C   C5        1.0  0.25341  0.38142  0.95979  1.0000
  C   C6        1.0  0.74658  0.61858  0.04021  1.0000
  C   C7        1.0  0.20317  0.40734  0.07932  1.0000
  C   C8        1.0  0.79682  0.59265  0.92068  1.0000
  C   C9        1.0  0.17831  0.29960  0.15341  1.0000
  C   C10       1.0  0.82167  0.70040  0.84659  1.0000
  C   C11       1.0  0.20496  0.16791  0.11034  1.0000
  C   C12       1.0  0.79503  0.83208  0.88966  1.0000
  C   C13       1.0  0.26085  0.14499  0.99279  1.0000
  C   C14       1.0  0.73914  0.85501  0.00721  1.0000
  C   C15       1.0  0.28479  0.25233  0.91840  1.0000
  C   C16       1.0  0.71520  0.74767  0.08161  1.0000
  C   C17       1.0  0.17290  0.92145  0.13731  1.0000
  C   C18       1.0  0.82710  0.07855  0.86268  1.0000
  C   C19       1.0  0.46788  0.42923  0.65693  1.0000
  C   C20       1.0  0.53212  0.57077  0.34307  1.0000
  C   C21       1.0  0.56930  0.37683  0.59518  1.0000
  C   C22       1.0  0.43070  0.62317  0.40482  1.0000
  C   C23       1.0  0.31104  0.23490  0.49078  1.0000
  C   C24       1.0  0.68896  0.76511  0.50922  1.0000
  C   C25       1.0  0.51998  0.15458  0.40247  1.0000
  C   C26       1.0  0.48003  0.84543  0.59753  1.0000
  C   C27       1.0  0.46443  0.99605  0.43038  1.0000
  C   C28       1.0  0.53558  0.00396  0.56962  1.0000
  C   C29       1.0  0.09773  0.81042  0.21949  1.0000
  C   C30       1.0  0.90227  0.18957  0.78051  1.0000
  N   N1        1.0  0.30727  0.33950  0.59089  1.0000
  N   N2        1.0  0.69273  0.66051  0.40911  1.0000
  N   N3        1.0  0.46843  0.25504  0.49042  1.0000
  N   N4        1.0  0.53158  0.74496  0.50958  1.0000
  O   O1        1.0  0.13897  0.56840  0.68454  1.0000
  O   O2        1.0  0.86103  0.43160  0.31546  1.0000
  O   O3        1.0  0.23164  0.80686  0.81638  1.0000
  O   O4        1.0  0.76836  0.19313  0.18362  1.0000
  O   O5        1.0  0.94788  0.28155  0.46187  1.0000
  O   O6        1.0  0.05213  0.71845  0.53813  1.0000
  O   O7        1.0  0.26687  0.47303  0.87260  1.0000
  O   O8        1.0  0.73312  0.52697  0.12740  1.0000
  O   O9        1.0  0.17274  0.06738  0.18923  1.0000
  O   O10       1.0  0.82725  0.93261  0.81077  1.0000
  O   O11       1.0  0.01940  0.84722  0.30589  1.0000
  O   O12       1.0  0.98060  0.15278  0.69411  1.0000
  O   O13       1.0  0.11106  0.68537  0.19604  1.0000
  O   O14       1.0  0.88895  0.31463  0.80396  1.0000
