data_image0
_chemical_formula_structural       Ce2H24C24N6O18
_chemical_formula_sum              "Ce2 H24 C24 N6 O18"
_cell_length_a       8.61866
_cell_length_b       9.13313
_cell_length_c       10.5555
_cell_angle_alpha    98.7272
_cell_angle_beta     97.6352
_cell_angle_gamma    117.116

_space_group_name_H-M_alt    "P 1"
_space_group_IT_number       1

loop_
  _space_group_symop_operation_xyz
  'x, y, z'

loop_
  _atom_site_type_symbol
  _atom_site_label
  _atom_site_symmetry_multiplicity
  _atom_site_fract_x
  _atom_site_fract_y
  _atom_site_fract_z
  _atom_site_occupancy
  Ce  Ce1       1.0  0.26597  0.15746  0.97002  1.0000
  Ce  Ce2       1.0  0.73404  0.84254  0.02998  1.0000
  H   H1        1.0  0.45153  0.86066  0.31131  1.0000
  H   H2        1.0  0.54847  0.13934  0.68870  1.0000
  H   H3        1.0  0.41538  0.02052  0.25631  1.0000
  H   H4        1.0  0.58461  0.97947  0.74369  1.0000
  H   H5        1.0  0.28022  0.76343  0.08414  1.0000
  H   H6        1.0  0.71976  0.23656  0.91585  1.0000
  H   H7        1.0  0.15551  0.63754  0.18461  1.0000
  H   H8        1.0  0.84448  0.36247  0.81540  1.0000
  H   H9        1.0  0.19013  0.28611  0.67207  1.0000
  H   H10       1.0  0.80987  0.71390  0.32793  1.0000
  H   H11       1.0  0.22205  0.32496  0.51369  1.0000
  H   H12       1.0  0.77795  0.67503  0.48631  1.0000
  H   H13       1.0  0.55771  0.40404  0.60503  1.0000
  H   H14       1.0  0.44229  0.59596  0.39496  1.0000
  H   H15       1.0  0.48573  0.55175  0.64410  1.0000
  H   H16       1.0  0.51427  0.44826  0.35591  1.0000
  H   H17       1.0  0.96821  0.59298  0.56719  1.0000
  H   H18       1.0  0.03178  0.40702  0.43280  1.0000
  H   H19       1.0  0.99763  0.74690  0.70679  1.0000
  H   H20       1.0  0.00237  0.25310  0.29321  1.0000
  H   H21       1.0  0.11891  0.55173  0.75966  1.0000
  H   H22       1.0  0.88109  0.44827  0.24034  1.0000
  H   H23       1.0  0.26782  0.62356  0.65674  1.0000
  H   H24       1.0  0.73217  0.37642  0.34326  1.0000
  C   C1        1.0  0.22049  0.80681  0.46853  1.0000
  C   C2        1.0  0.77951  0.19319  0.53147  1.0000
  C   C3        1.0  0.29974  0.09102  0.43818  1.0000
  C   C4        1.0  0.70026  0.90898  0.56182  1.0000
  C   C5        1.0  0.16284  0.99752  0.62067  1.0000
  C   C6        1.0  0.83717  0.00248  0.37932  1.0000
  C   C7        1.0  0.35119  0.89871  0.28223  1.0000
  C   C8        1.0  0.64881  0.10129  0.71777  1.0000
  C   C9        1.0  0.20973  0.76307  0.16364  1.0000
  C   C10       1.0  0.79026  0.23693  0.83636  1.0000
  C   C11       1.0  0.05579  0.79426  0.11833  1.0000
  C   C12       1.0  0.94423  0.20576  0.88167  1.0000
  C   C13       1.0  0.27271  0.29350  0.60035  1.0000
  C   C14       1.0  0.72730  0.70650  0.39965  1.0000
  C   C15       1.0  0.46768  0.42925  0.65843  1.0000
  C   C16       1.0  0.53233  0.57076  0.34158  1.0000
  C   C17       1.0  0.53780  0.45257  0.80354  1.0000
  C   C18       1.0  0.46218  0.54741  0.19646  1.0000
  C   C19       1.0  0.06755  0.70536  0.64313  1.0000
  C   C20       1.0  0.93244  0.29463  0.35687  1.0000
  C   C21       1.0  0.19603  0.66221  0.72077  1.0000
  C   C22       1.0  0.80397  0.33779  0.27923  1.0000
  C   C23       1.0  0.33459  0.80282  0.83626  1.0000
  C   C24       1.0  0.66541  0.19718  0.16373  1.0000
  N   N1        1.0  0.28351  0.93101  0.39891  1.0000
  N   N2        1.0  0.71650  0.06899  0.60109  1.0000
  N   N3        1.0  0.24725  0.12120  0.55452  1.0000
  N   N4        1.0  0.75275  0.87880  0.44549  1.0000
  N   N5        1.0  0.15615  0.84327  0.57680  1.0000
  N   N6        1.0  0.84385  0.15673  0.42320  1.0000
  O   O1        1.0  0.21971  0.67137  0.43540  1.0000
  O   O2        1.0  0.78029  0.32864  0.56460  1.0000
  O   O3        1.0  0.35912  0.20000  0.37652  1.0000
  O   O4        1.0  0.64089  0.80001  0.62349  1.0000
  O   O5        1.0  0.09627  0.02292  0.71278  1.0000
  O   O6        1.0  0.90373  0.97709  0.28724  1.0000
  O   O7        1.0  0.08380  0.92418  0.06970  1.0000
  O   O8        1.0  0.91622  0.07584  0.93031  1.0000
  O   O9        1.0  0.90132  0.69357  0.12907  1.0000
  O   O10       1.0  0.09868  0.30644  0.87094  1.0000
  O   O11       1.0  0.66809  0.59564  0.86621  1.0000
  O   O12       1.0  0.33190  0.40435  0.13381  1.0000
  O   O13       1.0  0.46566  0.32635  0.85460  1.0000
  O   O14       1.0  0.53434  0.67363  0.14538  1.0000
  O   O15       1.0  0.31539  0.93084  0.87489  1.0000
  O   O16       1.0  0.68463  0.06917  0.12509  1.0000
  O   O17       1.0  0.46398  0.78280  0.88596  1.0000
  O   O18       1.0  0.53602  0.21720  0.11404  1.0000
