data_image0
_chemical_formula_structural       Zn2H36C28S8N4O4
_chemical_formula_sum              "Zn2 H36 C28 S8 N4 O4"
_cell_length_a       7.02075
_cell_length_b       9.59117
_cell_length_c       16.7008
_cell_angle_alpha    93.5991
_cell_angle_beta     99.1035
_cell_angle_gamma    92.8717

_space_group_name_H-M_alt    "P 1"
_space_group_IT_number       1

loop_
  _space_group_symop_operation_xyz
  'x, y, z'

loop_
  _atom_site_type_symbol
  _atom_site_label
  _atom_site_symmetry_multiplicity
  _atom_site_fract_x
  _atom_site_fract_y
  _atom_site_fract_z
  _atom_site_occupancy
  Zn  Zn1       1.0  0.57128  0.79499  0.24673  1.0000
  Zn  Zn2       1.0  0.42872  0.20500  0.75327  1.0000
  H   H1        1.0  0.64379  0.49439  0.49007  1.0000
  H   H2        1.0  0.35630  0.50562  0.50991  1.0000
  H   H3        1.0  0.16363  0.63306  0.40485  1.0000
  H   H4        1.0  0.83644  0.36695  0.59513  1.0000
  H   H5        1.0  0.89560  0.67814  0.09632  1.0000
  H   H6        1.0  0.10438  0.32183  0.90370  1.0000
  H   H7        1.0  0.34502  0.44931  0.01066  1.0000
  H   H8        1.0  0.65495  0.55067  0.98935  1.0000
  H   H9        1.0  0.27814  0.89378  0.34954  1.0000
  H   H10       1.0  0.72188  0.10623  0.65047  1.0000
  H   H11       1.0  0.62059  0.19075  0.40261  1.0000
  H   H12       1.0  0.37943  0.80926  0.59740  1.0000
  H   H13       1.0  0.53234  0.22744  0.49683  1.0000
  H   H14       1.0  0.46767  0.77257  0.50317  1.0000
  H   H15       1.0  0.42294  0.30011  0.40637  1.0000
  H   H16       1.0  0.57707  0.69990  0.59363  1.0000
  H   H17       1.0  0.10557  0.16921  0.44068  1.0000
  H   H18       1.0  0.89444  0.83079  0.55931  1.0000
  H   H19       1.0  0.10113  0.98235  0.43110  1.0000
  H   H20       1.0  0.89888  0.01766  0.56889  1.0000
  H   H21       1.0  0.23625  0.07863  0.51958  1.0000
  H   H22       1.0  0.76375  0.92137  0.48042  1.0000
  H   H23       1.0  0.46958  0.05785  0.16248  1.0000
  H   H24       1.0  0.53038  0.94215  0.83752  1.0000
  H   H25       1.0  0.64053  0.32629  0.07526  1.0000
  H   H26       1.0  0.35940  0.67370  0.92473  1.0000
  H   H27       1.0  0.42524  0.23621  0.09256  1.0000
  H   H28       1.0  0.57469  0.76377  0.90743  1.0000
  H   H29       1.0  0.49682  0.21923  0.99426  1.0000
  H   H30       1.0  0.50313  0.78075  0.00573  1.0000
  H   H31       1.0  0.93711  0.17414  0.06749  1.0000
  H   H32       1.0  0.06285  0.82586  0.93251  1.0000
  H   H33       1.0  0.79510  0.07714  0.98277  1.0000
  H   H34       1.0  0.20487  0.92286  0.01724  1.0000
  H   H35       1.0  0.89084  0.98904  0.07171  1.0000
  H   H36       1.0  0.10913  0.01097  0.92830  1.0000
  C   C1        1.0  0.77356  0.65111  0.37707  1.0000
  C   C2        1.0  0.22651  0.34891  0.62292  1.0000
  C   C3        1.0  0.88888  0.57361  0.43963  1.0000
  C   C4        1.0  0.11119  0.42642  0.56035  1.0000
  C   C5        1.0  0.80022  0.49656  0.49422  1.0000
  C   C6        1.0  0.19985  0.50346  0.50577  1.0000
  C   C7        1.0  0.09164  0.57536  0.44687  1.0000
  C   C8        1.0  0.90845  0.42467  0.55311  1.0000
  C   C9        1.0  0.28458  0.64874  0.12478  1.0000
  C   C10       1.0  0.71540  0.35124  0.87523  1.0000
  C   C11       1.0  0.13854  0.57238  0.06164  1.0000
  C   C12       1.0  0.86144  0.42759  0.93837  1.0000
  C   C13       1.0  0.94185  0.60088  0.05374  1.0000
  C   C14       1.0  0.05812  0.39909  0.94627  1.0000
  C   C15       1.0  0.19293  0.47023  0.00664  1.0000
  C   C16       1.0  0.80706  0.52975  0.99337  1.0000
  C   C17       1.0  0.38940  0.98152  0.35880  1.0000
  C   C18       1.0  0.61060  0.01849  0.64121  1.0000
  C   C19       1.0  0.49221  0.20776  0.43063  1.0000
  C   C20       1.0  0.50780  0.79225  0.56937  1.0000
  C   C21       1.0  0.19129  0.07792  0.45339  1.0000
  C   C22       1.0  0.80871  0.92208  0.54660  1.0000
  C   C23       1.0  0.60116  0.02670  0.13927  1.0000
  C   C24       1.0  0.39881  0.97330  0.86073  1.0000
  C   C25       1.0  0.54889  0.22911  0.06013  1.0000
  C   C26       1.0  0.45104  0.77088  0.93987  1.0000
  C   C27       1.0  0.83035  0.08520  0.04956  1.0000
  C   C28       1.0  0.16961  0.91481  0.95046  1.0000
  S   S1        1.0  0.88817  0.76108  0.32170  1.0000
  S   S2        1.0  0.11185  0.23893  0.67828  1.0000
  S   S3        1.0  0.52917  0.62955  0.35923  1.0000
  S   S4        1.0  0.47090  0.37046  0.64077  1.0000
  S   S5        1.0  0.22857  0.79740  0.17414  1.0000
  S   S6        1.0  0.77141  0.20258  0.82587  1.0000
  S   S7        1.0  0.50771  0.58837  0.14746  1.0000
  S   S8        1.0  0.49228  0.41163  0.85254  1.0000
  N   N1        1.0  0.35961  0.08420  0.41245  1.0000
  N   N2        1.0  0.64041  0.91581  0.58755  1.0000
  N   N3        1.0  0.65688  0.10927  0.08466  1.0000
  N   N4        1.0  0.34306  0.89073  0.91535  1.0000
  O   O1        1.0  0.53105  0.98247  0.32112  1.0000
  O   O2        1.0  0.46902  0.01752  0.67889  1.0000
  O   O3        1.0  0.68734  0.92167  0.16299  1.0000
  O   O4        1.0  0.31263  0.07834  0.83701  1.0000
