data_image0
_chemical_formula_structural       Ag4H28C28N4Cl4O24
_chemical_formula_sum              "Ag4 H28 C28 N4 Cl4 O24"
_cell_length_a       5.2321
_cell_length_b       13.0777
_cell_length_c       15.3925
_cell_angle_alpha    89.9997
_cell_angle_beta     90.0005
_cell_angle_gamma    103.303

_space_group_name_H-M_alt    "P 1"
_space_group_IT_number       1

loop_
  _space_group_symop_operation_xyz
  'x, y, z'

loop_
  _atom_site_type_symbol
  _atom_site_label
  _atom_site_symmetry_multiplicity
  _atom_site_fract_x
  _atom_site_fract_y
  _atom_site_fract_z
  _atom_site_occupancy
  Ag  Ag1       1.0  0.76499  0.95486  0.96176  1.0000
  Ag  Ag2       1.0  0.23513  0.54516  0.46176  1.0000
  Ag  Ag3       1.0  0.23524  0.04518  0.03824  1.0000
  Ag  Ag4       1.0  0.76486  0.45485  0.53824  1.0000
  H   H1        1.0  0.55156  0.94277  0.76957  1.0000
  H   H2        1.0  0.44853  0.55725  0.26958  1.0000
  H   H3        1.0  0.44856  0.05725  0.23041  1.0000
  H   H4        1.0  0.55143  0.44274  0.73042  1.0000
  H   H5        1.0  0.45222  0.05430  0.72819  1.0000
  H   H6        1.0  0.54783  0.44569  0.22818  1.0000
  H   H7        1.0  0.54783  0.94569  0.27181  1.0000
  H   H8        1.0  0.45217  0.55429  0.77181  1.0000
  H   H9        1.0  0.07744  0.03578  0.64349  1.0000
  H   H10       1.0  0.92256  0.46424  0.14348  1.0000
  H   H11       1.0  0.92262  0.96425  0.35650  1.0000
  H   H12       1.0  0.07741  0.53576  0.85650  1.0000
  H   H13       1.0  0.74885  0.92144  0.54496  1.0000
  H   H14       1.0  0.25111  0.57857  0.04493  1.0000
  H   H15       1.0  0.25117  0.07858  0.45504  1.0000
  H   H16       1.0  0.74885  0.42145  0.95505  1.0000
  H   H17       1.0  0.71314  0.72737  0.54571  1.0000
  H   H18       1.0  0.28686  0.77263  0.04569  1.0000
  H   H19       1.0  0.28686  0.27264  0.45430  1.0000
  H   H20       1.0  0.71310  0.22739  0.95430  1.0000
  H   H21       1.0  0.00164  0.65285  0.64712  1.0000
  H   H22       1.0  0.99839  0.84715  0.14712  1.0000
  H   H23       1.0  0.99833  0.34715  0.35289  1.0000
  H   H24       1.0  0.00155  0.15285  0.85289  1.0000
  H   H25       1.0  0.31861  0.77732  0.74324  1.0000
  H   H26       1.0  0.68144  0.72270  0.24325  1.0000
  H   H27       1.0  0.68140  0.22268  0.25676  1.0000
  H   H28       1.0  0.31851  0.27729  0.75676  1.0000
  C   C1        1.0  0.23706  0.98796  0.84096  1.0000
  C   C2        1.0  0.76304  0.51207  0.34097  1.0000
  C   C3        1.0  0.76307  0.01207  0.15903  1.0000
  C   C4        1.0  0.23692  0.48791  0.65903  1.0000
  C   C5        1.0  0.38108  0.97588  0.75661  1.0000
  C   C6        1.0  0.61896  0.52414  0.25663  1.0000
  C   C7        1.0  0.61896  0.02415  0.24336  1.0000
  C   C8        1.0  0.38103  0.47584  0.74337  1.0000
  C   C9        1.0  0.05189  0.95080  0.64117  1.0000
  C   C10       1.0  0.94813  0.54920  0.14114  1.0000
  C   C11       1.0  0.94818  0.04920  0.35884  1.0000
  C   C12       1.0  0.05179  0.45079  0.85886  1.0000
  C   C13       1.0  0.87208  0.88642  0.58727  1.0000
  C   C14       1.0  0.12792  0.61357  0.08726  1.0000
  C   C15       1.0  0.12793  0.11356  0.41273  1.0000
  C   C16       1.0  0.87201  0.38643  0.91273  1.0000
  C   C17       1.0  0.85265  0.77819  0.58842  1.0000
  C   C18       1.0  0.14735  0.72180  0.08841  1.0000
  C   C19       1.0  0.14740  0.22181  0.41158  1.0000
  C   C20       1.0  0.85262  0.27818  0.91159  1.0000
  C   C21       1.0  0.01348  0.73691  0.64407  1.0000
  C   C22       1.0  0.98655  0.76309  0.14406  1.0000
  C   C23       1.0  0.98656  0.26309  0.35596  1.0000
  C   C24       1.0  0.01340  0.23691  0.85595  1.0000
  C   C25       1.0  0.19007  0.80375  0.69696  1.0000
  C   C26       1.0  0.80998  0.69624  0.19696  1.0000
  C   C27       1.0  0.80994  0.19624  0.30304  1.0000
  C   C28       1.0  0.19000  0.30377  0.80304  1.0000
  N   N1        1.0  0.20702  0.90867  0.69434  1.0000
  N   N2        1.0  0.79301  0.59135  0.19434  1.0000
  N   N3        1.0  0.79301  0.09135  0.30565  1.0000
  N   N4        1.0  0.20695  0.40864  0.80565  1.0000
  Cl  Cl1       1.0  0.71954  0.69325  0.89559  1.0000
  Cl  Cl2       1.0  0.28042  0.80674  0.39558  1.0000
  Cl  Cl3       1.0  0.28035  0.30672  0.10443  1.0000
  Cl  Cl4       1.0  0.71959  0.19326  0.60441  1.0000
  O   O1        1.0  0.65194  0.76099  0.96421  1.0000
  O   O2        1.0  0.34805  0.73902  0.46422  1.0000
  O   O3        1.0  0.34801  0.23902  0.03578  1.0000
  O   O4        1.0  0.65197  0.26099  0.53578  1.0000
  O   O5        1.0  0.60640  0.71656  0.81282  1.0000
  O   O6        1.0  0.39359  0.78342  0.31282  1.0000
  O   O7        1.0  0.39349  0.28340  0.18719  1.0000
  O   O8        1.0  0.60642  0.21657  0.68717  1.0000
  O   O9        1.0  0.60918  0.58392  0.91970  1.0000
  O   O10       1.0  0.39074  0.91607  0.41968  1.0000
  O   O11       1.0  0.39062  0.41607  0.08036  1.0000
  O   O12       1.0  0.60928  0.08393  0.58030  1.0000
  O   O13       1.0  0.00401  0.71187  0.88733  1.0000
  O   O14       1.0  0.99593  0.78811  0.38732  1.0000
  O   O15       1.0  0.99588  0.28807  0.11270  1.0000
  O   O16       1.0  0.00407  0.21190  0.61268  1.0000
  O   O17       1.0  0.98972  0.97073  0.83838  1.0000
  O   O18       1.0  0.01040  0.52927  0.33836  1.0000
  O   O19       1.0  0.01043  0.02925  0.16164  1.0000
  O   O20       1.0  0.98959  0.47074  0.66163  1.0000
  O   O21       1.0  0.38521  0.01924  0.90595  1.0000
  O   O22       1.0  0.61489  0.48080  0.40595  1.0000
  O   O23       1.0  0.61496  0.98080  0.09404  1.0000
  O   O24       1.0  0.38508  0.51920  0.59404  1.0000
