data_image0
_chemical_formula_structural       Cs2H8C12S4N2O8
_chemical_formula_sum              "Cs2 H8 C12 S4 N2 O8"
_cell_length_a       5.86557
_cell_length_b       8.31244
_cell_length_c       11.0183
_cell_angle_alpha    89.9988
_cell_angle_beta     105.387
_cell_angle_gamma    90.0013

_space_group_name_H-M_alt    "P 1"
_space_group_IT_number       1

loop_
  _space_group_symop_operation_xyz
  'x, y, z'

loop_
  _atom_site_type_symbol
  _atom_site_label
  _atom_site_symmetry_multiplicity
  _atom_site_fract_x
  _atom_site_fract_y
  _atom_site_fract_z
  _atom_site_occupancy
  Cs  Cs1       1.0  0.98848  0.25000  0.97705  1.0000
  Cs  Cs2       1.0  0.01152  0.75000  0.02295  1.0000
  H   H1        1.0  0.73015  0.55146  0.46007  1.0000
  H   H2        1.0  0.26985  0.05147  0.53994  1.0000
  H   H3        1.0  0.73017  0.94853  0.46006  1.0000
  H   H4        1.0  0.26984  0.44854  0.53993  1.0000
  H   H5        1.0  0.83181  0.39983  0.66267  1.0000
  H   H6        1.0  0.16818  0.89984  0.33733  1.0000
  H   H7        1.0  0.83182  0.10015  0.66267  1.0000
  H   H8        1.0  0.16819  0.60016  0.33733  1.0000
  C   C1        1.0  0.67377  0.33372  0.34859  1.0000
  C   C2        1.0  0.32623  0.83373  0.65141  1.0000
  C   C3        1.0  0.67377  0.16627  0.34858  1.0000
  C   C4        1.0  0.32622  0.66628  0.65141  1.0000
  C   C5        1.0  0.73026  0.42042  0.46068  1.0000
  C   C6        1.0  0.26971  0.92042  0.53932  1.0000
  C   C7        1.0  0.73029  0.07958  0.46068  1.0000
  C   C8        1.0  0.26973  0.57958  0.53931  1.0000
  C   C9        1.0  0.78709  0.33430  0.57384  1.0000
  C   C10       1.0  0.21294  0.83431  0.42616  1.0000
  C   C11       1.0  0.78708  0.16568  0.57384  1.0000
  C   C12       1.0  0.21291  0.66569  0.42616  1.0000
  S   S1        1.0  0.59585  0.41368  0.19302  1.0000
  S   S2        1.0  0.40414  0.91368  0.80698  1.0000
  S   S3        1.0  0.59585  0.08632  0.19301  1.0000
  S   S4        1.0  0.40415  0.58632  0.80698  1.0000
  N   N1        1.0  0.55653  0.25001  0.11368  1.0000
  N   N2        1.0  0.44347  0.75000  0.88632  1.0000
  O   O1        1.0  0.37609  0.50428  0.17306  1.0000
  O   O2        1.0  0.20489  0.00475  0.82716  1.0000
  O   O3        1.0  0.79513  0.50476  0.17285  1.0000
  O   O4        1.0  0.37607  0.99572  0.17305  1.0000
  O   O5        1.0  0.62391  0.49572  0.82694  1.0000
  O   O6        1.0  0.79511  0.99525  0.17284  1.0000
  O   O7        1.0  0.20488  0.49524  0.82716  1.0000
  O   O8        1.0  0.62392  0.00429  0.82695  1.0000
