data_image0
_chemical_formula_structural       Cd6H24C24N20
_chemical_formula_sum              "Cd6 H24 C24 N20"
_cell_length_a       7.80715
_cell_length_b       11.4165
_cell_length_c       13.3005
_cell_angle_alpha    90
_cell_angle_beta     90
_cell_angle_gamma    109.992

_space_group_name_H-M_alt    "P 1"
_space_group_IT_number       1

loop_
  _space_group_symop_operation_xyz
  'x, y, z'

loop_
  _atom_site_type_symbol
  _atom_site_label
  _atom_site_symmetry_multiplicity
  _atom_site_fract_x
  _atom_site_fract_y
  _atom_site_fract_z
  _atom_site_occupancy
  Cd  Cd1       1.0  0.27471  0.31327  0.25000  1.0000
  Cd  Cd2       1.0  0.96131  0.68672  0.25000  1.0000
  Cd  Cd3       1.0  0.03869  0.31328  0.75000  1.0000
  Cd  Cd4       1.0  0.72529  0.68673  0.75000  1.0000
  Cd  Cd5       1.0  0.50000  1.00000  1.00000  1.0000
  Cd  Cd6       1.0  0.50000  1.00000  0.50000  1.0000
  H   H1        1.0  0.91624  0.00000  0.81724  1.0000
  H   H2        1.0  0.08376  1.00000  0.31724  1.0000
  H   H3        1.0  0.08376  1.00000  0.18276  1.0000
  H   H4        1.0  0.91623  0.00000  0.68276  1.0000
  H   H5        1.0  0.18879  0.11291  0.90737  1.0000
  H   H6        1.0  0.07582  0.88701  0.90737  1.0000
  H   H7        1.0  0.92418  0.11300  0.40737  1.0000
  H   H8        1.0  0.81121  0.88709  0.40737  1.0000
  H   H9        1.0  0.81121  0.88709  0.09263  1.0000
  H   H10       1.0  0.92418  0.11299  0.09263  1.0000
  H   H11       1.0  0.07582  0.88701  0.59263  1.0000
  H   H12       1.0  0.18879  0.11291  0.59263  1.0000
  H   H13       1.0  0.39235  0.19637  0.84060  1.0000
  H   H14       1.0  0.19585  0.80352  0.84060  1.0000
  H   H15       1.0  0.80415  0.19648  0.34060  1.0000
  H   H16       1.0  0.60765  0.80363  0.34060  1.0000
  H   H17       1.0  0.60765  0.80363  0.15940  1.0000
  H   H18       1.0  0.80415  0.19648  0.15940  1.0000
  H   H19       1.0  0.19585  0.80352  0.65940  1.0000
  H   H20       1.0  0.39235  0.19637  0.65940  1.0000
  H   H21       1.0  0.47130  0.91656  0.75000  1.0000
  H   H22       1.0  0.55469  0.08341  0.75000  1.0000
  H   H23       1.0  0.44531  0.91659  0.25000  1.0000
  H   H24       1.0  0.52870  0.08344  0.25000  1.0000
  C   C1        1.0  0.10212  0.42802  0.25000  1.0000
  C   C2        1.0  0.67401  0.57213  0.25000  1.0000
  C   C3        1.0  0.32599  0.42787  0.75000  1.0000
  C   C4        1.0  0.89788  0.57198  0.75000  1.0000
  C   C5        1.0  0.34885  0.21560  0.12081  1.0000
  C   C6        1.0  0.13319  0.78439  0.12084  1.0000
  C   C7        1.0  0.86681  0.21561  0.62084  1.0000
  C   C8        1.0  0.65115  0.78439  0.62081  1.0000
  C   C9        1.0  0.65115  0.78440  0.87919  1.0000
  C   C10       1.0  0.86681  0.21561  0.87916  1.0000
  C   C11       1.0  0.13319  0.78439  0.37916  1.0000
  C   C12       1.0  0.34885  0.21561  0.37919  1.0000
  C   C13       1.0  0.99780  0.00000  0.75000  1.0000
  C   C14       1.0  0.00220  1.00000  0.25000  1.0000
  C   C15       1.0  0.26951  0.11258  0.83990  1.0000
  C   C16       1.0  0.15685  0.88735  0.83990  1.0000
  C   C17       1.0  0.84315  0.11265  0.33990  1.0000
  C   C18       1.0  0.73049  0.88742  0.33990  1.0000
  C   C19       1.0  0.73049  0.88742  0.16010  1.0000
  C   C20       1.0  0.84315  0.11265  0.16010  1.0000
  C   C21       1.0  0.15685  0.88735  0.66010  1.0000
  C   C22       1.0  0.26951  0.11258  0.66010  1.0000
  C   C23       1.0  0.43169  0.99999  0.75000  1.0000
  C   C24       1.0  0.56831  0.00001  0.25000  1.0000
  N   N1        1.0  0.04007  0.50759  0.25000  1.0000
  N   N2        1.0  0.53244  0.49246  0.25000  1.0000
  N   N3        1.0  0.46756  0.50754  0.75000  1.0000
  N   N4        1.0  0.95993  0.49241  0.75000  1.0000
  N   N5        1.0  0.39699  0.15114  0.06782  1.0000
  N   N6        1.0  0.24573  0.84890  0.06785  1.0000
  N   N7        1.0  0.75427  0.15110  0.56785  1.0000
  N   N8        1.0  0.60301  0.84886  0.56782  1.0000
  N   N9        1.0  0.60301  0.84886  0.93218  1.0000
  N   N10       1.0  0.75427  0.15110  0.93215  1.0000
  N   N11       1.0  0.24573  0.84890  0.43215  1.0000
  N   N12       1.0  0.39699  0.15114  0.43218  1.0000
  N   N13       1.0  0.32496  0.99995  0.84235  1.0000
  N   N14       1.0  0.67504  0.00005  0.34235  1.0000
  N   N15       1.0  0.67504  0.00005  0.15765  1.0000
  N   N16       1.0  0.32496  0.99995  0.65765  1.0000
  N   N17       1.0  0.16077  0.11350  0.75000  1.0000
  N   N18       1.0  0.04723  0.88649  0.75000  1.0000
  N   N19       1.0  0.95277  0.11351  0.25000  1.0000
  N   N20       1.0  0.83923  0.88650  0.25000  1.0000
