data_image0
_chemical_formula_structural       Mn4H16W2C28N24
_chemical_formula_sum              "Mn4 H16 W2 C28 N24"
_cell_length_a       9.74495
_cell_length_b       9.87221
_cell_length_c       10.7894
_cell_angle_alpha    94.7804
_cell_angle_beta     103.933
_cell_angle_gamma    102.877

_space_group_name_H-M_alt    "P 1"
_space_group_IT_number       1

loop_
  _space_group_symop_operation_xyz
  'x, y, z'

loop_
  _atom_site_type_symbol
  _atom_site_label
  _atom_site_symmetry_multiplicity
  _atom_site_fract_x
  _atom_site_fract_y
  _atom_site_fract_z
  _atom_site_occupancy
  Mn  Mn1       1.0  0.64491  0.28239  0.80221  1.0000
  Mn  Mn2       1.0  0.35508  0.71761  0.19779  1.0000
  Mn  Mn3       1.0  0.89219  0.75707  0.53341  1.0000
  Mn  Mn4       1.0  0.10781  0.24293  0.46659  1.0000
  H   H1        1.0  0.93526  0.40461  0.69708  1.0000
  H   H2        1.0  0.06473  0.59539  0.30292  1.0000
  H   H3        1.0  0.92099  0.27716  0.05870  1.0000
  H   H4        1.0  0.07901  0.72284  0.94129  1.0000
  H   H5        1.0  0.21985  0.44572  0.84970  1.0000
  H   H6        1.0  0.78014  0.55428  0.15030  1.0000
  H   H7        1.0  0.19005  0.35919  0.05930  1.0000
  H   H8        1.0  0.80995  0.64081  0.94069  1.0000
  H   H9        1.0  0.16793  0.93727  0.44067  1.0000
  H   H10       1.0  0.83208  0.06273  0.55933  1.0000
  H   H11       1.0  0.71428  0.83228  0.26000  1.0000
  H   H12       1.0  0.28572  0.16772  0.74000  1.0000
  H   H13       1.0  0.12197  0.01274  0.19388  1.0000
  H   H14       1.0  0.87804  0.98727  0.80613  1.0000
  H   H15       1.0  0.84324  0.92983  0.09602  1.0000
  H   H16       1.0  0.15677  0.07017  0.90398  1.0000
  W   W1        1.0  0.56875  0.26656  0.28705  1.0000
  W   W2        1.0  0.43125  0.73344  0.71295  1.0000
  C   C1        1.0  0.63247  0.26077  0.49132  1.0000
  C   C2        1.0  0.36753  0.73923  0.50868  1.0000
  C   C3        1.0  0.72193  0.45998  0.37367  1.0000
  C   C4        1.0  0.27806  0.54002  0.62633  1.0000
  C   C5        1.0  0.62459  0.27612  0.10655  1.0000
  C   C6        1.0  0.37541  0.72388  0.89344  1.0000
  C   C7        1.0  0.48123  0.44093  0.23365  1.0000
  C   C8        1.0  0.51877  0.55908  0.76634  1.0000
  C   C9        1.0  0.52533  0.04265  0.27024  1.0000
  C   C10       1.0  0.47467  0.95736  0.72976  1.0000
  C   C11       1.0  0.39174  0.25158  0.37054  1.0000
  C   C12       1.0  0.60826  0.74844  0.62947  1.0000
  C   C13       1.0  0.78377  0.23009  0.32219  1.0000
  C   C14       1.0  0.21623  0.76991  0.67781  1.0000
  C   C15       1.0  0.37218  0.17241  0.13667  1.0000
  C   C16       1.0  0.62782  0.82759  0.86334  1.0000
  C   C17       1.0  0.97469  0.38452  0.79481  1.0000
  C   C18       1.0  0.02530  0.61547  0.20519  1.0000
  C   C19       1.0  0.96149  0.31637  0.97999  1.0000
  C   C20       1.0  0.03850  0.68362  0.02000  1.0000
  C   C21       1.0  0.11556  0.40423  0.86831  1.0000
  C   C22       1.0  0.88443  0.59576  0.13168  1.0000
  C   C23       1.0  0.06680  0.92887  0.36814  1.0000
  C   C24       1.0  0.93320  0.07113  0.63187  1.0000
  C   C25       1.0  0.83163  0.87000  0.27762  1.0000
  C   C26       1.0  0.16839  0.13000  0.72238  1.0000
  C   C27       1.0  0.04573  0.96567  0.24597  1.0000
  C   C28       1.0  0.95428  0.03434  0.75403  1.0000
  N   N1        1.0  0.66482  0.26633  0.60399  1.0000
  N   N2        1.0  0.33518  0.73366  0.39601  1.0000
  N   N3        1.0  0.81205  0.56164  0.42791  1.0000
  N   N4        1.0  0.18795  0.43837  0.57209  1.0000
  N   N5        1.0  0.64487  0.27709  0.00361  1.0000
  N   N6        1.0  0.35513  0.72291  0.99639  1.0000
  N   N7        1.0  0.43268  0.53722  0.20863  1.0000
  N   N8        1.0  0.56733  0.46278  0.79137  1.0000
  N   N9        1.0  0.49345  0.91926  0.25231  1.0000
  N   N10       1.0  0.50654  0.08074  0.74769  1.0000
  N   N11       1.0  0.28688  0.23982  0.40832  1.0000
  N   N12       1.0  0.71313  0.76019  0.59168  1.0000
  N   N13       1.0  0.90548  0.22225  0.34998  1.0000
  N   N14       1.0  0.09452  0.77775  0.65003  1.0000
  N   N15       1.0  0.26142  0.11701  0.06087  1.0000
  N   N16       1.0  0.73858  0.88299  0.93914  1.0000
  N   N17       1.0  0.87937  0.33001  0.86560  1.0000
  N   N18       1.0  0.12062  0.66998  0.13440  1.0000
  N   N19       1.0  0.10450  0.36083  0.98443  1.0000
  N   N20       1.0  0.89550  0.63917  0.01556  1.0000
  N   N21       1.0  0.93170  0.86903  0.38670  1.0000
  N   N22       1.0  0.06831  0.13097  0.61330  1.0000
  N   N23       1.0  0.89739  0.92812  0.19169  1.0000
  N   N24       1.0  0.10262  0.07188  0.80831  1.0000
