data_image0
_chemical_formula_structural       K4P4H44C20O26
_chemical_formula_sum              "K4 P4 H44 C20 O26"
_cell_length_a       7.0082
_cell_length_b       8.10358
_cell_length_c       17.5358
_cell_angle_alpha    101.321
_cell_angle_beta     101.491
_cell_angle_gamma    90.0241

_space_group_name_H-M_alt    "P 1"
_space_group_IT_number       1

loop_
  _space_group_symop_operation_xyz
  'x, y, z'

loop_
  _atom_site_type_symbol
  _atom_site_label
  _atom_site_symmetry_multiplicity
  _atom_site_fract_x
  _atom_site_fract_y
  _atom_site_fract_z
  _atom_site_occupancy
  K   K1        1.0  0.77753  0.42349  0.92507  1.0000
  K   K2        1.0  0.85198  0.07645  0.07495  1.0000
  K   K3        1.0  0.22246  0.57651  0.07493  1.0000
  K   K4        1.0  0.14802  0.92354  0.92505  1.0000
  P   P1        1.0  0.20648  0.45818  0.85530  1.0000
  P   P2        1.0  0.35051  0.04192  0.14465  1.0000
  P   P3        1.0  0.79350  0.54183  0.14471  1.0000
  P   P4        1.0  0.64950  0.95808  0.85535  1.0000
  H   H1        1.0  0.94859  0.08977  0.73928  1.0000
  H   H2        1.0  0.20898  0.41036  0.26080  1.0000
  H   H3        1.0  0.05141  0.91023  0.26072  1.0000
  H   H4        1.0  0.79102  0.58964  0.73920  1.0000
  H   H5        1.0  0.20809  0.12667  0.76991  1.0000
  H   H6        1.0  0.43777  0.37341  0.23006  1.0000
  H   H7        1.0  0.79190  0.87332  0.23009  1.0000
  H   H8        1.0  0.56224  0.62659  0.76994  1.0000
  H   H9        1.0  0.37768  0.35463  0.72203  1.0000
  H   H10       1.0  0.65493  0.14534  0.27784  1.0000
  H   H11       1.0  0.62232  0.64537  0.27797  1.0000
  H   H12       1.0  0.34508  0.85466  0.72216  1.0000
  H   H13       1.0  0.23560  0.48085  0.66035  1.0000
  H   H14       1.0  0.57440  0.01914  0.33957  1.0000
  H   H15       1.0  0.76440  0.51915  0.33965  1.0000
  H   H16       1.0  0.42559  0.98086  0.66043  1.0000
  H   H17       1.0  0.02348  0.26391  0.52956  1.0000
  H   H18       1.0  0.49294  0.23606  0.47042  1.0000
  H   H19       1.0  0.97653  0.73609  0.47045  1.0000
  H   H20       1.0  0.50706  0.76394  0.52958  1.0000
  H   H21       1.0  0.15340  0.07587  0.50834  1.0000
  H   H22       1.0  0.64432  0.42404  0.49163  1.0000
  H   H23       1.0  0.84660  0.92413  0.49166  1.0000
  H   H24       1.0  0.35568  0.57596  0.50837  1.0000
  H   H25       1.0  0.28287  0.26676  0.56220  1.0000
  H   H26       1.0  0.71986  0.23317  0.43778  1.0000
  H   H27       1.0  0.71713  0.73325  0.43780  1.0000
  H   H28       1.0  0.28014  0.76683  0.56222  1.0000
  H   H29       1.0  0.72133  0.13118  0.60673  1.0000
  H   H30       1.0  0.11385  0.36878  0.39329  1.0000
  H   H31       1.0  0.27866  0.86882  0.39327  1.0000
  H   H32       1.0  0.88615  0.63123  0.60671  1.0000
  H   H33       1.0  0.60904  0.33205  0.62148  1.0000
  H   H34       1.0  0.98680  0.16784  0.37855  1.0000
  H   H35       1.0  0.39096  0.66796  0.37852  1.0000
  H   H36       1.0  0.01319  0.83217  0.62145  1.0000
  H   H37       1.0  0.69610  0.23365  0.70393  1.0000
  H   H38       1.0  0.99161  0.26628  0.29610  1.0000
  H   H39       1.0  0.30390  0.76635  0.29607  1.0000
  H   H40       1.0  0.00839  0.73372  0.70390  1.0000
  H   H41       1.0  0.63830  0.71486  0.04040  1.0000
  H   H42       1.0  0.59803  0.78484  0.95952  1.0000
  H   H43       1.0  0.36169  0.28514  0.95960  1.0000
  H   H44       1.0  0.40198  0.21516  0.04048  1.0000
  C   C1        1.0  0.06800  0.18534  0.75404  1.0000
  C   C2        1.0  0.31354  0.31476  0.24600  1.0000
  C   C3        1.0  0.93200  0.81466  0.24596  1.0000
  C   C4        1.0  0.68647  0.68524  0.75400  1.0000
  C   C5        1.0  0.07561  0.27069  0.68368  1.0000
  C   C6        1.0  0.39132  0.22931  0.31628  1.0000
  C   C7        1.0  0.92439  0.72931  0.31631  1.0000
  C   C8        1.0  0.60868  0.77069  0.68372  1.0000
  C   C9        1.0  0.23572  0.41183  0.70815  1.0000
  C   C10       1.0  0.52681  0.08814  0.29176  1.0000
  C   C11       1.0  0.76428  0.58817  0.29185  1.0000
  C   C12       1.0  0.47320  0.91187  0.70824  1.0000
  C   C13       1.0  0.14649  0.19092  0.55243  1.0000
  C   C14       1.0  0.59326  0.30900  0.44754  1.0000
  C   C15       1.0  0.85351  0.80908  0.44757  1.0000
  C   C16       1.0  0.40674  0.69100  0.55246  1.0000
  C   C17       1.0  0.72277  0.25422  0.64675  1.0000
  C   C18       1.0  0.07530  0.24571  0.35327  1.0000
  C   C19       1.0  0.27723  0.74578  0.35325  1.0000
  C   C20       1.0  0.92470  0.75429  0.64673  1.0000
  O   O1        1.0  0.03510  0.30911  0.82061  1.0000
  O   O2        1.0  0.21395  0.19098  0.17945  1.0000
  O   O3        1.0  0.96489  0.69089  0.17939  1.0000
  O   O4        1.0  0.78606  0.80902  0.82055  1.0000
  O   O5        1.0  0.12020  0.13852  0.62321  1.0000
  O   O6        1.0  0.49654  0.36140  0.37676  1.0000
  O   O7        1.0  0.87980  0.86148  0.37679  1.0000
  O   O8        1.0  0.50346  0.63860  0.62324  1.0000
  O   O9        1.0  0.90202  0.34916  0.65665  1.0000
  O   O10       1.0  0.24461  0.15082  0.34332  1.0000
  O   O11       1.0  0.09797  0.65084  0.34335  1.0000
  O   O12       1.0  0.75539  0.84918  0.65668  1.0000
  O   O13       1.0  0.20657  0.53472  0.77589  1.0000
  O   O14       1.0  0.42988  0.96528  0.22403  1.0000
  O   O15       1.0  0.79342  0.46528  0.22411  1.0000
  O   O16       1.0  0.57012  0.03473  0.77597  1.0000
  O   O17       1.0  0.39832  0.37969  0.87863  1.0000
  O   O18       1.0  0.51913  0.12034  0.12128  1.0000
  O   O19       1.0  0.60167  0.62030  0.12137  1.0000
  O   O20       1.0  0.48088  0.87965  0.87872  1.0000
  O   O21       1.0  0.12810  0.58542  0.91402  1.0000
  O   O22       1.0  0.21335  0.91482  0.08592  1.0000
  O   O23       1.0  0.87189  0.41457  0.08598  1.0000
  O   O24       1.0  0.78665  0.08517  0.91408  1.0000
  O   O25       1.0  0.70105  0.74989  0.99999  1.0000
  O   O26       1.0  0.29895  0.25011  0.00002  1.0000
