data_image0
_chemical_formula_structural       Bi2H26C38N12O10
_chemical_formula_sum              "Bi2 H26 C38 N12 O10"
_cell_length_a       9.89703
_cell_length_b       10.1442
_cell_length_c       10.6594
_cell_angle_alpha    105.437
_cell_angle_beta     95.5357
_cell_angle_gamma    106.175

_space_group_name_H-M_alt    "P 1"
_space_group_IT_number       1

loop_
  _space_group_symop_operation_xyz
  'x, y, z'

loop_
  _atom_site_type_symbol
  _atom_site_label
  _atom_site_symmetry_multiplicity
  _atom_site_fract_x
  _atom_site_fract_y
  _atom_site_fract_z
  _atom_site_occupancy
  Bi  Bi1       1.0  0.07836  0.36266  0.08522  1.0000
  Bi  Bi2       1.0  0.92164  0.63735  0.91478  1.0000
  H   H1        1.0  0.87526  0.73986  0.57017  1.0000
  H   H2        1.0  0.12475  0.26014  0.42984  1.0000
  H   H3        1.0  0.66082  0.52774  0.54078  1.0000
  H   H4        1.0  0.33918  0.47225  0.45922  1.0000
  H   H5        1.0  0.35917  0.56329  0.95555  1.0000
  H   H6        1.0  0.64083  0.43671  0.04444  1.0000
  H   H7        1.0  0.23818  0.08092  0.63381  1.0000
  H   H8        1.0  0.76182  0.91908  0.36619  1.0000
  H   H9        1.0  0.82238  0.03535  0.00771  1.0000
  H   H10       1.0  0.17762  0.96465  0.99229  1.0000
  H   H11       1.0  0.47549  0.26841  0.64719  1.0000
  H   H12       1.0  0.52451  0.73158  0.35280  1.0000
  H   H13       1.0  0.10885  0.84340  0.50784  1.0000
  H   H14       1.0  0.89115  0.15660  0.49217  1.0000
  H   H15       1.0  0.11126  0.12775  0.22725  1.0000
  H   H16       1.0  0.88874  0.87226  0.77275  1.0000
  H   H17       1.0  0.25889  0.22597  0.18817  1.0000
  H   H18       1.0  0.74111  0.77404  0.81183  1.0000
  H   H19       1.0  0.19322  0.68399  0.32909  1.0000
  H   H20       1.0  0.80678  0.31601  0.67091  1.0000
  H   H21       1.0  0.51661  0.27359  0.41626  1.0000
  H   H22       1.0  0.48339  0.72641  0.58374  1.0000
  H   H23       1.0  0.48799  0.04361  0.23858  1.0000
  H   H24       1.0  0.51201  0.95640  0.76141  1.0000
  H   H25       1.0  0.58635  0.90798  0.05837  1.0000
  H   H26       1.0  0.41364  0.09202  0.94162  1.0000
  C   C1        1.0  0.91334  0.67548  0.49113  1.0000
  C   C2        1.0  0.08665  0.32451  0.50887  1.0000
  C   C3        1.0  0.69663  0.46448  0.45881  1.0000
  C   C4        1.0  0.30337  0.53552  0.54120  1.0000
  C   C5        1.0  0.88353  0.45023  0.32257  1.0000
  C   C6        1.0  0.11647  0.54977  0.67743  1.0000
  C   C7        1.0  0.33706  0.45685  0.88442  1.0000
  C   C8        1.0  0.66294  0.54314  0.11558  1.0000
  C   C9        1.0  0.05406  0.10743  0.80749  1.0000
  C   C10       1.0  0.94594  0.89256  0.19252  1.0000
  C   C11       1.0  0.27122  0.18862  0.70456  1.0000
  C   C12       1.0  0.72877  0.81137  0.29544  1.0000
  C   C13       1.0  0.83018  0.53087  0.42528  1.0000
  C   C14       1.0  0.16982  0.46912  0.57472  1.0000
  C   C15       1.0  0.77575  0.08983  0.08632  1.0000
  C   C16       1.0  0.22425  0.91018  0.91368  1.0000
  C   C17       1.0  0.39958  0.29260  0.71023  1.0000
  C   C18       1.0  0.60042  0.70740  0.28977  1.0000
  C   C19       1.0  0.04356  0.73226  0.45720  1.0000
  C   C20       1.0  0.95645  0.26774  0.54281  1.0000
  C   C21       1.0  0.80068  0.30256  0.25124  1.0000
  C   C22       1.0  0.19932  0.69744  0.74876  1.0000
  C   C23       1.0  0.43343  0.43049  0.80095  1.0000
  C   C24       1.0  0.56656  0.56950  0.19905  1.0000
  C   C25       1.0  0.18537  0.22144  0.79733  1.0000
  C   C26       1.0  0.81463  0.77856  0.20268  1.0000
  C   C27       1.0  0.08977  0.64441  0.35662  1.0000
  C   C28       1.0  0.91023  0.35559  0.64339  1.0000
  C   C29       1.0  0.61888  0.32453  0.39173  1.0000
  C   C30       1.0  0.38112  0.67547  0.60827  1.0000
  C   C31       1.0  0.57491  0.54457  0.81757  1.0000
  C   C32       1.0  0.42509  0.45543  0.18243  1.0000
  C   C33       1.0  0.66827  0.24040  0.28665  1.0000
  C   C34       1.0  0.33173  0.75960  0.71335  1.0000
  C   C35       1.0  0.59040  0.09555  0.21526  1.0000
  C   C36       1.0  0.40960  0.90445  0.78473  1.0000
  C   C37       1.0  0.64411  0.01987  0.11529  1.0000
  C   C38       1.0  0.35589  0.98014  0.88471  1.0000
  N   N1        1.0  0.85135  0.22643  0.15231  1.0000
  N   N2        1.0  0.14865  0.77357  0.84768  1.0000
  N   N3        1.0  0.21911  0.35324  0.88578  1.0000
  N   N4        1.0  0.78088  0.64676  0.11421  1.0000
  N   N5        1.0  0.22810  0.71714  0.11279  1.0000
  N   N6        1.0  0.77191  0.28286  0.88722  1.0000
  N   N7        1.0  0.12724  0.61297  0.05125  1.0000
  N   N8        1.0  0.87277  0.38703  0.94875  1.0000
  N   N9        1.0  0.01132  0.50854  0.29069  1.0000
  N   N10       1.0  0.98867  0.49146  0.70932  1.0000
  N   N11       1.0  0.32568  0.81633  0.17289  1.0000
  N   N12       1.0  0.67432  0.18367  0.82711  1.0000
  O   O1        1.0  0.58451  0.67584  0.86197  1.0000
  O   O2        1.0  0.41549  0.32416  0.13803  1.0000
  O   O3        1.0  0.67719  0.49435  0.78733  1.0000
  O   O4        1.0  0.32281  0.50565  0.21265  1.0000
  O   O5        1.0  0.00124  0.13512  0.91315  1.0000
  O   O6        1.0  0.99876  0.86488  0.08686  1.0000
  O   O7        1.0  0.00586  0.99079  0.71462  1.0000
  O   O8        1.0  0.99413  0.00921  0.28538  1.0000
  O   O9        1.0  0.16583  0.22274  0.21707  1.0000
  O   O10       1.0  0.83417  0.77727  0.78295  1.0000
