data_image0
_chemical_formula_structural       Nd2CoH32C16O20
_chemical_formula_sum              "Nd2 Co1 H32 C16 O20"
_cell_length_a       8.25048
_cell_length_b       9.4666
_cell_length_c       11.2424
_cell_angle_alpha    111.075
_cell_angle_beta     105.287
_cell_angle_gamma    93.2327

_space_group_name_H-M_alt    "P 1"
_space_group_IT_number       1

loop_
  _space_group_symop_operation_xyz
  'x, y, z'

loop_
  _atom_site_type_symbol
  _atom_site_label
  _atom_site_symmetry_multiplicity
  _atom_site_fract_x
  _atom_site_fract_y
  _atom_site_fract_z
  _atom_site_occupancy
  Nd  Nd1       1.0  0.10674  0.92008  0.34340  1.0000
  Nd  Nd2       1.0  0.89324  0.07993  0.65660  1.0000
  Co  Co1       1.0  1.00000  0.99999  1.00000  1.0000
  H   H1        1.0  0.23699  0.91602  0.61541  1.0000
  H   H2        1.0  0.76301  0.08400  0.38460  1.0000
  H   H3        1.0  0.41118  0.97133  0.59671  1.0000
  H   H4        1.0  0.58882  0.02869  0.40329  1.0000
  H   H5        1.0  0.05777  0.59427  0.19635  1.0000
  H   H6        1.0  0.94227  0.40572  0.80368  1.0000
  H   H7        1.0  0.23470  0.59637  0.29672  1.0000
  H   H8        1.0  0.76533  0.40366  0.70333  1.0000
  H   H9        1.0  0.39194  0.85269  0.00981  1.0000
  H   H10       1.0  0.60805  0.14730  0.99018  1.0000
  H   H11       1.0  0.57972  0.93464  0.15208  1.0000
  H   H12       1.0  0.42027  0.06534  0.84791  1.0000
  H   H13       1.0  0.44092  0.05296  0.09436  1.0000
  H   H14       1.0  0.55908  0.94703  0.90564  1.0000
  H   H15       1.0  0.57286  0.63324  0.01325  1.0000
  H   H16       1.0  0.42714  0.36676  0.98675  1.0000
  H   H17       1.0  0.69518  0.50011  0.93990  1.0000
  H   H18       1.0  0.30482  0.49988  0.06011  1.0000
  H   H19       1.0  0.59378  0.61629  0.85520  1.0000
  H   H20       1.0  0.40622  0.38369  0.14480  1.0000
  H   H21       1.0  0.27325  0.40225  0.75446  1.0000
  H   H22       1.0  0.72674  0.59774  0.24553  1.0000
  H   H23       1.0  0.39252  0.44673  0.65501  1.0000
  H   H24       1.0  0.60747  0.55327  0.34498  1.0000
  H   H25       1.0  0.45068  0.30966  0.72639  1.0000
  H   H26       1.0  0.54931  0.69034  0.27360  1.0000
  H   H27       1.0  0.88939  0.41227  0.28808  1.0000
  H   H28       1.0  0.11062  0.58774  0.71191  1.0000
  H   H29       1.0  0.90643  0.34727  0.42213  1.0000
  H   H30       1.0  0.09359  0.65275  0.57786  1.0000
  H   H31       1.0  0.70928  0.30558  0.29675  1.0000
  H   H32       1.0  0.29073  0.69444  0.70324  1.0000
  C   C1        1.0  0.33792  0.93657  0.19394  1.0000
  C   C2        1.0  0.66208  0.06342  0.80605  1.0000
  C   C3        1.0  0.81708  0.73729  0.02435  1.0000
  C   C4        1.0  0.18293  0.26270  0.97566  1.0000
  C   C5        1.0  0.23411  0.22598  0.55812  1.0000
  C   C6        1.0  0.76587  0.77403  0.44187  1.0000
  C   C7        1.0  0.89232  0.16923  0.23366  1.0000
  C   C8        1.0  0.10768  0.83078  0.76633  1.0000
  C   C9        1.0  0.44778  0.94506  0.10931  1.0000
  C   C10       1.0  0.55222  0.05493  0.89069  1.0000
  C   C11       1.0  0.66017  0.61363  0.95225  1.0000
  C   C12       1.0  0.33982  0.38636  0.04776  1.0000
  C   C13       1.0  0.34251  0.35669  0.68195  1.0000
  C   C14       1.0  0.65748  0.64331  0.31804  1.0000
  C   C15       1.0  0.84810  0.31910  0.31486  1.0000
  C   C16       1.0  0.15191  0.68091  0.68513  1.0000
  O   O1        1.0  0.10117  0.15102  0.56229  1.0000
  O   O2        1.0  0.89882  0.84898  0.43770  1.0000
  O   O3        1.0  0.27851  0.18386  0.45294  1.0000
  O   O4        1.0  0.72147  0.81615  0.54705  1.0000
  O   O5        1.0  0.18669  0.96542  0.16479  1.0000
  O   O6        1.0  0.81331  0.03456  0.83520  1.0000
  O   O7        1.0  0.39285  0.89916  0.29515  1.0000
  O   O8        1.0  0.60715  0.10085  0.70486  1.0000
  O   O9        1.0  0.92997  0.16212  0.12957  1.0000
  O   O10       1.0  0.07003  0.83788  0.87042  1.0000
  O   O11       1.0  0.88537  0.05872  0.27446  1.0000
  O   O12       1.0  0.11462  0.94129  0.72554  1.0000
  O   O13       1.0  0.82380  0.84109  0.97837  1.0000
  O   O14       1.0  0.17621  0.15890  0.02163  1.0000
  O   O15       1.0  0.92539  0.72790  0.12508  1.0000
  O   O16       1.0  0.07461  0.27210  0.87493  1.0000
  O   O17       1.0  0.29939  0.90239  0.54813  1.0000
  O   O18       1.0  0.70060  0.09763  0.45187  1.0000
  O   O19       1.0  0.12623  0.63285  0.29097  1.0000
  O   O20       1.0  0.87380  0.36717  0.70906  1.0000
