data_image0
_chemical_formula_structural       Na2H20C10N2O10
_chemical_formula_sum              "Na2 H20 C10 N2 O10"
_cell_length_a       5.41582
_cell_length_b       8.25652
_cell_length_c       8.94123
_cell_angle_alpha    99.0772
_cell_angle_beta     90.0001
_cell_angle_gamma    90

_space_group_name_H-M_alt    "P 1"
_space_group_IT_number       1

loop_
  _space_group_symop_operation_xyz
  'x, y, z'

loop_
  _atom_site_type_symbol
  _atom_site_label
  _atom_site_symmetry_multiplicity
  _atom_site_fract_x
  _atom_site_fract_y
  _atom_site_fract_z
  _atom_site_occupancy
  Na  Na1       1.0  0.76360  0.40540  0.46657  1.0000
  Na  Na2       1.0  0.26359  0.59461  0.53343  1.0000
  H   H1        1.0  0.60103  0.16610  0.14493  1.0000
  H   H2        1.0  0.10101  0.83390  0.85507  1.0000
  H   H3        1.0  0.12795  0.53770  0.08973  1.0000
  H   H4        1.0  0.62794  0.46229  0.91028  1.0000
  H   H5        1.0  0.96656  0.38508  0.16773  1.0000
  H   H6        1.0  0.46655  0.61491  0.83227  1.0000
  H   H7        1.0  0.94924  0.24470  0.90816  1.0000
  H   H8        1.0  0.44924  0.75530  0.09184  1.0000
  H   H9        1.0  0.20941  0.35441  0.85826  1.0000
  H   H10       1.0  0.70942  0.64559  0.14175  1.0000
  H   H11       1.0  0.20039  0.05205  0.01475  1.0000
  H   H12       1.0  0.70039  0.94794  0.98524  1.0000
  H   H13       1.0  0.88880  0.13065  0.59441  1.0000
  H   H14       1.0  0.38880  0.86935  0.40558  1.0000
  H   H15       1.0  0.94523  0.10982  0.41545  1.0000
  H   H16       1.0  0.44522  0.89018  0.58455  1.0000
  H   H17       1.0  0.77162  0.72872  0.43630  1.0000
  H   H18       1.0  0.27163  0.27129  0.56371  1.0000
  H   H19       1.0  0.99760  0.71385  0.32611  1.0000
  H   H20       1.0  0.49761  0.28616  0.67389  1.0000
  C   C1        1.0  0.35777  0.36319  0.17941  1.0000
  C   C2        1.0  0.85777  0.63681  0.82059  1.0000
  C   C3        1.0  0.12740  0.40661  0.09846  1.0000
  C   C4        1.0  0.62741  0.59338  0.90154  1.0000
  C   C5        1.0  0.13136  0.29133  0.94658  1.0000
  C   C6        1.0  0.63137  0.70866  0.05342  1.0000
  C   C7        1.0  0.30594  0.15054  0.97495  1.0000
  C   C8        1.0  0.80595  0.84946  0.02505  1.0000
  C   C9        1.0  0.44003  0.07498  0.82908  1.0000
  C   C10       1.0  0.94003  0.92502  0.17091  1.0000
  N   N1        1.0  0.46246  0.22901  0.09832  1.0000
  N   N2        1.0  0.96247  0.77099  0.90168  1.0000
  O   O1        1.0  0.43831  0.43781  0.30230  1.0000
  O   O2        1.0  0.93831  0.56218  0.69770  1.0000
  O   O3        1.0  0.34839  0.94070  0.76125  1.0000
  O   O4        1.0  0.84842  0.05930  0.23875  1.0000
  O   O5        1.0  0.61965  0.15118  0.78153  1.0000
  O   O6        1.0  0.11965  0.84882  0.21847  1.0000
  O   O7        1.0  0.98568  0.17527  0.51768  1.0000
  O   O8        1.0  0.48568  0.82473  0.48231  1.0000
  O   O9        1.0  0.91471  0.65683  0.40200  1.0000
  O   O10       1.0  0.41472  0.34318  0.59800  1.0000
