data_image0
_chemical_formula_structural       Zn3H26C40N2O16
_chemical_formula_sum              "Zn3 H26 C40 N2 O16"
_cell_length_a       8.94052
_cell_length_b       10.1214
_cell_length_c       10.9896
_cell_angle_alpha    100.514
_cell_angle_beta     89.03
_cell_angle_gamma    105.887

_space_group_name_H-M_alt    "P 1"
_space_group_IT_number       1

loop_
  _space_group_symop_operation_xyz
  'x, y, z'

loop_
  _atom_site_type_symbol
  _atom_site_label
  _atom_site_symmetry_multiplicity
  _atom_site_fract_x
  _atom_site_fract_y
  _atom_site_fract_z
  _atom_site_occupancy
  Zn  Zn1       1.0  0.49129  0.95298  0.06172  1.0000
  Zn  Zn2       1.0  0.60328  0.75552  0.23117  1.0000
  Zn  Zn3       1.0  0.28741  0.77231  0.58114  1.0000
  H   H1        1.0  0.86930  0.42025  0.30675  1.0000
  H   H2        1.0  0.69483  0.37117  0.12372  1.0000
  H   H3        1.0  0.02961  0.67697  0.96086  1.0000
  H   H4        1.0  0.69692  0.83333  0.74135  1.0000
  H   H5        1.0  0.82043  0.74180  0.55016  1.0000
  H   H6        1.0  0.91372  0.52984  0.54378  1.0000
  H   H7        1.0  0.88038  0.41145  0.72693  1.0000
  H   H8        1.0  0.77047  0.02284  0.68431  1.0000
  H   H9        1.0  0.11890  0.31577  0.51879  1.0000
  H   H10       1.0  0.95203  0.25575  0.32892  1.0000
  H   H11       1.0  0.90384  0.29420  0.91501  1.0000
  H   H12       1.0  0.87108  0.18911  0.10509  1.0000
  H   H13       1.0  0.97374  0.98258  0.11237  1.0000
  H   H14       1.0  0.09807  0.88400  0.92762  1.0000
  H   H15       1.0  0.51879  0.00411  0.80983  1.0000
  H   H16       1.0  0.46822  0.17046  0.69099  1.0000
  H   H17       1.0  0.36146  0.40598  0.03738  1.0000
  H   H18       1.0  0.41029  0.22442  0.14093  1.0000
  H   H19       1.0  0.21495  0.68139  0.81541  1.0000
  H   H20       1.0  0.24917  0.50104  0.93060  1.0000
  H   H21       1.0  0.50424  0.35581  0.62004  1.0000
  H   H22       1.0  0.44921  0.53667  0.51636  1.0000
  H   H23       1.0  0.91308  0.73512  0.27820  1.0000
  H   H24       1.0  0.89278  0.86925  0.36577  1.0000
  H   H25       1.0  0.41931  0.52915  0.29539  1.0000
  H   H26       1.0  0.58863  0.51053  0.31246  1.0000
  C   C1        1.0  0.25905  0.73678  0.13369  1.0000
  C   C2        1.0  0.16375  0.59528  0.34747  1.0000
  C   C3        1.0  0.09861  0.64214  0.13688  1.0000
  C   C4        1.0  0.05652  0.56935  0.23549  1.0000
  C   C5        1.0  0.90829  0.47475  0.23024  1.0000
  C   C6        1.0  0.80775  0.44751  0.12786  1.0000
  C   C7        1.0  0.85249  0.51903  0.03006  1.0000
  C   C8        1.0  0.99593  0.61865  0.03554  1.0000
  C   C9        1.0  0.77787  0.56013  0.83566  1.0000
  C   C10       1.0  0.72702  0.68110  0.84259  1.0000
  C   C11       1.0  0.74117  0.74259  0.73682  1.0000
  C   C12       1.0  0.80769  0.69015  0.62997  1.0000
  C   C13       1.0  0.85972  0.57137  0.62617  1.0000
  C   C14       1.0  0.84323  0.50568  0.72860  1.0000
  C   C15       1.0  0.65824  0.74662  0.95538  1.0000
  C   C16       1.0  0.66638  0.08860  0.28422  1.0000
  C   C17       1.0  0.57197  0.91582  0.49448  1.0000
  C   C18       1.0  0.76752  0.10127  0.39546  1.0000
  C   C19       1.0  0.71927  0.03162  0.49535  1.0000
  C   C20       1.0  0.81095  0.07188  0.60515  1.0000
  C   C21       1.0  0.95310  0.17381  0.61370  1.0000
  C   C22       1.0  0.00601  0.23850  0.51288  1.0000
  C   C23       1.0  0.91188  0.20343  0.40649  1.0000
  C   C24       1.0  0.01453  0.14621  0.81673  1.0000
  C   C25       1.0  0.94410  0.20299  0.91961  1.0000
  C   C26       1.0  0.92719  0.14389  0.02589  1.0000
  C   C27       1.0  0.98351  0.02890  0.02949  1.0000
  C   C28       1.0  0.05174  0.97221  0.92546  1.0000
  C   C29       1.0  0.06655  0.02688  0.81590  1.0000
  C   C30       1.0  0.13697  0.95710  0.70551  1.0000
  C   C31       1.0  0.48434  0.09491  0.85681  1.0000
  C   C32       1.0  0.45680  0.19090  0.79086  1.0000
  C   C33       1.0  0.40980  0.30594  0.85287  1.0000
  C   C34       1.0  0.39207  0.31740  0.98138  1.0000
  C   C35       1.0  0.42045  0.21694  0.04118  1.0000
  C   C36       1.0  0.27665  0.60536  0.77617  1.0000
  C   C37       1.0  0.29882  0.50557  0.83989  1.0000
  C   C38       1.0  0.38156  0.41155  0.78627  1.0000
  C   C39       1.0  0.43697  0.42341  0.66727  1.0000
  C   C40       1.0  0.40921  0.52537  0.60886  1.0000
  N   N1        1.0  0.46689  0.10731  0.98012  1.0000
  N   N2        1.0  0.33024  0.61548  0.66191  1.0000
  O   O1        1.0  0.27440  0.84659  0.08655  1.0000
  O   O2        1.0  0.36776  0.69701  0.17323  1.0000
  O   O3        1.0  0.16107  0.70570  0.42633  1.0000
  O   O4        1.0  0.23912  0.50995  0.35877  1.0000
  O   O5        1.0  0.75094  0.48167  0.92948  1.0000
  O   O6        1.0  0.68122  0.71406  0.05822  1.0000
  O   O7        1.0  0.58277  0.83262  0.93725  1.0000
  O   O8        1.0  0.62159  0.96644  0.21021  1.0000
  O   O9        1.0  0.63254  0.19348  0.26279  1.0000
  O   O10       1.0  0.53394  0.81259  0.40586  1.0000
  O   O11       1.0  0.49072  0.92349  0.59115  1.0000
  O   O12       1.0  0.04324  0.22129  0.72027  1.0000
  O   O13       1.0  0.14668  0.99754  0.60435  1.0000
  O   O14       1.0  0.18508  0.85225  0.72591  1.0000
  O   O15       1.0  0.83563  0.78219  0.31312  1.0000
  O   O16       1.0  0.52489  0.54177  0.25918  1.0000
