data_image0
_chemical_formula_structural       Ba4H36C28N4O28
_chemical_formula_sum              "Ba4 H36 C28 N4 O28"
_cell_length_a       7.11942
_cell_length_b       7.62536
_cell_length_c       18.6435
_cell_angle_alpha    89.9998
_cell_angle_beta     90
_cell_angle_gamma    90.5314

_space_group_name_H-M_alt    "P 1"
_space_group_IT_number       1

loop_
  _space_group_symop_operation_xyz
  'x, y, z'

loop_
  _atom_site_type_symbol
  _atom_site_label
  _atom_site_symmetry_multiplicity
  _atom_site_fract_x
  _atom_site_fract_y
  _atom_site_fract_z
  _atom_site_occupancy
  Ba  Ba1       1.0  0.47403  0.24356  0.56531  1.0000
  Ba  Ba2       1.0  0.02597  0.75644  0.06531  1.0000
  Ba  Ba3       1.0  0.52597  0.75644  0.43469  1.0000
  Ba  Ba4       1.0  0.97403  0.24356  0.93469  1.0000
  H   H1        1.0  0.96866  0.73154  0.60644  1.0000
  H   H2        1.0  0.53134  0.26846  0.10644  1.0000
  H   H3        1.0  0.03134  0.26846  0.39356  1.0000
  H   H4        1.0  0.46867  0.73154  0.89356  1.0000
  H   H5        1.0  0.14331  0.47942  0.80155  1.0000
  H   H6        1.0  0.35666  0.52058  0.30155  1.0000
  H   H7        1.0  0.85667  0.52058  0.19845  1.0000
  H   H8        1.0  0.64333  0.47941  0.69845  1.0000
  H   H9        1.0  0.90838  0.99659  0.79874  1.0000
  H   H10       1.0  0.59162  0.00341  0.29874  1.0000
  H   H11       1.0  0.09162  0.00341  0.20126  1.0000
  H   H12       1.0  0.40838  0.99659  0.70126  1.0000
  H   H13       1.0  0.94488  0.30050  0.53692  1.0000
  H   H14       1.0  0.55512  0.69949  0.03692  1.0000
  H   H15       1.0  0.05511  0.69949  0.46309  1.0000
  H   H16       1.0  0.44489  0.30050  0.96308  1.0000
  H   H17       1.0  0.84874  0.38138  0.46907  1.0000
  H   H18       1.0  0.65126  0.61862  0.96907  1.0000
  H   H19       1.0  0.15125  0.61861  0.53093  1.0000
  H   H20       1.0  0.34875  0.38139  0.03093  1.0000
  H   H21       1.0  0.73541  0.23808  0.72459  1.0000
  H   H22       1.0  0.76458  0.76191  0.22459  1.0000
  H   H23       1.0  0.26458  0.76191  0.27541  1.0000
  H   H24       1.0  0.23542  0.23809  0.77541  1.0000
  H   H25       1.0  0.80117  0.07812  0.67684  1.0000
  H   H26       1.0  0.69883  0.92187  0.17684  1.0000
  H   H27       1.0  0.19883  0.92188  0.32316  1.0000
  H   H28       1.0  0.30117  0.07813  0.82316  1.0000
  H   H29       1.0  0.07507  0.03272  0.60771  1.0000
  H   H30       1.0  0.42493  0.96728  0.10771  1.0000
  H   H31       1.0  0.92494  0.96728  0.39229  1.0000
  H   H32       1.0  0.57507  0.03271  0.89229  1.0000
  H   H33       1.0  0.13844  0.92541  0.53945  1.0000
  H   H34       1.0  0.36157  0.07458  0.03945  1.0000
  H   H35       1.0  0.86157  0.07458  0.46055  1.0000
  H   H36       1.0  0.63844  0.92541  0.96055  1.0000
  C   C1        1.0  0.98836  0.73109  0.66440  1.0000
  C   C2        1.0  0.51163  0.26891  0.16440  1.0000
  C   C3        1.0  0.01163  0.26891  0.33560  1.0000
  C   C4        1.0  0.48837  0.73109  0.83560  1.0000
  C   C5        1.0  0.06751  0.58542  0.69815  1.0000
  C   C6        1.0  0.43248  0.41458  0.19814  1.0000
  C   C7        1.0  0.93248  0.41459  0.30186  1.0000
  C   C8        1.0  0.56752  0.58542  0.80185  1.0000
  C   C9        1.0  0.08144  0.58857  0.77278  1.0000
  C   C10       1.0  0.41854  0.41142  0.27277  1.0000
  C   C11       1.0  0.91856  0.41143  0.22722  1.0000
  C   C12       1.0  0.58145  0.58857  0.72722  1.0000
  C   C13       1.0  0.02245  0.73587  0.81067  1.0000
  C   C14       1.0  0.47752  0.26413  0.31067  1.0000
  C   C15       1.0  0.97754  0.26413  0.18933  1.0000
  C   C16       1.0  0.52247  0.73587  0.68932  1.0000
  C   C17       1.0  0.95288  0.87753  0.77153  1.0000
  C   C18       1.0  0.54710  0.12246  0.27152  1.0000
  C   C19       1.0  0.04712  0.12247  0.22848  1.0000
  C   C20       1.0  0.45289  0.87753  0.72847  1.0000
  C   C21       1.0  0.14633  0.43664  0.65484  1.0000
  C   C22       1.0  0.35368  0.56337  0.15484  1.0000
  C   C23       1.0  0.85367  0.56336  0.34516  1.0000
  C   C24       1.0  0.64633  0.43664  0.84516  1.0000
  C   C25       1.0  0.04250  0.74303  0.89103  1.0000
  C   C26       1.0  0.45750  0.25697  0.39102  1.0000
  C   C27       1.0  0.95750  0.25698  0.10897  1.0000
  C   C28       1.0  0.54250  0.74303  0.60897  1.0000
  N   N1        1.0  0.93471  0.87573  0.69983  1.0000
  N   N2        1.0  0.56527  0.12427  0.19983  1.0000
  N   N3        1.0  0.06528  0.12427  0.30017  1.0000
  N   N4        1.0  0.43473  0.87573  0.80017  1.0000
  O   O1        1.0  0.13282  0.44390  0.58637  1.0000
  O   O2        1.0  0.36719  0.55611  0.08636  1.0000
  O   O3        1.0  0.86718  0.55610  0.41364  1.0000
  O   O4        1.0  0.63283  0.44390  0.91363  1.0000
  O   O5        1.0  0.23214  0.31442  0.68713  1.0000
  O   O6        1.0  0.26787  0.68559  0.18713  1.0000
  O   O7        1.0  0.76786  0.68558  0.31287  1.0000
  O   O8        1.0  0.73215  0.31442  0.81287  1.0000
  O   O9        1.0  0.04493  0.89203  0.92162  1.0000
  O   O10       1.0  0.45508  0.10798  0.42163  1.0000
  O   O11       1.0  0.95507  0.10798  0.07837  1.0000
  O   O12       1.0  0.54491  0.89202  0.57837  1.0000
  O   O13       1.0  0.05769  0.59814  0.92444  1.0000
  O   O14       1.0  0.44232  0.40187  0.42443  1.0000
  O   O15       1.0  0.94233  0.40187  0.07556  1.0000
  O   O16       1.0  0.55768  0.59813  0.57556  1.0000
  O   O17       1.0  0.84007  0.28059  0.50327  1.0000
  O   O18       1.0  0.65993  0.71941  0.00328  1.0000
  O   O19       1.0  0.15993  0.71941  0.49673  1.0000
  O   O20       1.0  0.34007  0.28059  0.99673  1.0000
  O   O21       1.0  0.73468  0.19215  0.67472  1.0000
  O   O22       1.0  0.76531  0.80784  0.17473  1.0000
  O   O23       1.0  0.26531  0.80784  0.32528  1.0000
  O   O24       1.0  0.23470  0.19216  0.82528  1.0000
  O   O25       1.0  0.14698  0.04192  0.56333  1.0000
  O   O26       1.0  0.35302  0.95807  0.06333  1.0000
  O   O27       1.0  0.85302  0.95807  0.43667  1.0000
  O   O28       1.0  0.64698  0.04192  0.93667  1.0000
