data_image0
_chemical_formula_structural       Sr2H22C14N2O16
_chemical_formula_sum              "Sr2 H22 C14 N2 O16"
_cell_length_a       7.06686
_cell_length_b       8.68293
_cell_length_c       10.0025
_cell_angle_alpha    71.3354
_cell_angle_beta     73.6473
_cell_angle_gamma    81.065

_space_group_name_H-M_alt    "P 1"
_space_group_IT_number       1

loop_
  _space_group_symop_operation_xyz
  'x, y, z'

loop_
  _atom_site_type_symbol
  _atom_site_label
  _atom_site_symmetry_multiplicity
  _atom_site_fract_x
  _atom_site_fract_y
  _atom_site_fract_z
  _atom_site_occupancy
  Sr  Sr1       1.0  0.27145  0.12341  0.40137  1.0000
  Sr  Sr2       1.0  0.72855  0.87658  0.59864  1.0000
  H   H1        1.0  0.37762  0.93744  0.91463  1.0000
  H   H2        1.0  0.62237  0.06258  0.08537  1.0000
  H   H3        1.0  0.03072  0.65599  0.29730  1.0000
  H   H4        1.0  0.96928  0.34402  0.70270  1.0000
  H   H5        1.0  0.88419  0.72467  0.89044  1.0000
  H   H6        1.0  0.11580  0.27533  0.10956  1.0000
  H   H7        1.0  0.91919  0.39264  0.41960  1.0000
  H   H8        1.0  0.08081  0.60735  0.58041  1.0000
  H   H9        1.0  0.87031  0.24255  0.55628  1.0000
  H   H10       1.0  0.12969  0.75745  0.44372  1.0000
  H   H11       1.0  0.34338  0.38956  0.54357  1.0000
  H   H12       1.0  0.65662  0.61044  0.45643  1.0000
  H   H13       1.0  0.31513  0.83426  0.23322  1.0000
  H   H14       1.0  0.68487  0.16574  0.76678  1.0000
  H   H15       1.0  0.54041  0.38719  0.41862  1.0000
  H   H16       1.0  0.45958  0.61280  0.58138  1.0000
  H   H17       1.0  0.35769  0.37984  0.06804  1.0000
  H   H18       1.0  0.64231  0.62016  0.93196  1.0000
  H   H19       1.0  0.44221  0.79202  0.35937  1.0000
  H   H20       1.0  0.55778  0.20797  0.64063  1.0000
  H   H21       1.0  0.46019  0.43118  0.16603  1.0000
  H   H22       1.0  0.53980  0.56881  0.83398  1.0000
  C   C1        1.0  0.18125  0.91279  0.72074  1.0000
  C   C2        1.0  0.81876  0.08721  0.27926  1.0000
  C   C3        1.0  0.13636  0.83848  0.88280  1.0000
  C   C4        1.0  0.86364  0.16152  0.11720  1.0000
  C   C5        1.0  0.25126  0.86274  0.96672  1.0000
  C   C6        1.0  0.74874  0.13725  0.03328  1.0000
  C   C7        1.0  0.05742  0.70582  0.17915  1.0000
  C   C8        1.0  0.94258  0.29419  0.82086  1.0000
  C   C9        1.0  0.93353  0.67507  0.10480  1.0000
  C   C10       1.0  0.06648  0.32493  0.89518  1.0000
  C   C11       1.0  0.97464  0.74463  0.95418  1.0000
  C   C12       1.0  0.02535  0.25537  0.04583  1.0000
  C   C13       1.0  0.76041  0.57255  0.18432  1.0000
  C   C14       1.0  0.23961  0.42745  0.81569  1.0000
  N   N1        1.0  0.21142  0.79928  0.11201  1.0000
  N   N2        1.0  0.78858  0.20073  0.88799  1.0000
  O   O1        1.0  0.64146  0.56389  0.11374  1.0000
  O   O2        1.0  0.35854  0.43612  0.88625  1.0000
  O   O3        1.0  0.74132  0.49948  0.32055  1.0000
  O   O4        1.0  0.25869  0.50052  0.67944  1.0000
  O   O5        1.0  0.04304  0.93265  0.65719  1.0000
  O   O6        1.0  0.95696  0.06736  0.34280  1.0000
  O   O7        1.0  0.35551  0.95560  0.65338  1.0000
  O   O8        1.0  0.64449  0.04440  0.34663  1.0000
  O   O9        1.0  0.98080  0.31120  0.49271  1.0000
  O   O10       1.0  0.01920  0.68880  0.50729  1.0000
  O   O11       1.0  0.33448  0.86171  0.31977  1.0000
  O   O12       1.0  0.66553  0.13829  0.68023  1.0000
  O   O13       1.0  0.43250  0.31860  0.48923  1.0000
  O   O14       1.0  0.56750  0.68140  0.51077  1.0000
  O   O15       1.0  0.36270  0.35674  0.17093  1.0000
  O   O16       1.0  0.63730  0.64325  0.82907  1.0000
