data_image0
_chemical_formula_structural       Mn4H24C16O28
_chemical_formula_sum              "Mn4 H24 C16 O28"
_cell_length_a       6.97515
_cell_length_b       10.3751
_cell_length_c       11.2872
_cell_angle_alpha    114.45
_cell_angle_beta     89.9991
_cell_angle_gamma    90.0008

_space_group_name_H-M_alt    "P 1"
_space_group_IT_number       1

loop_
  _space_group_symop_operation_xyz
  'x, y, z'

loop_
  _atom_site_type_symbol
  _atom_site_label
  _atom_site_symmetry_multiplicity
  _atom_site_fract_x
  _atom_site_fract_y
  _atom_site_fract_z
  _atom_site_occupancy
  Mn  Mn1       1.0  0.16083  0.41604  0.26245  1.0000
  Mn  Mn2       1.0  0.16082  0.08396  0.73754  1.0000
  Mn  Mn3       1.0  0.83916  0.58396  0.73755  1.0000
  Mn  Mn4       1.0  0.83918  0.91604  0.26246  1.0000
  H   H1        1.0  0.63517  0.23243  0.10175  1.0000
  H   H2        1.0  0.63517  0.26757  0.89824  1.0000
  H   H3        1.0  0.36483  0.76757  0.89825  1.0000
  H   H4        1.0  0.36484  0.73243  0.10176  1.0000
  H   H5        1.0  0.36230  0.16030  0.37310  1.0000
  H   H6        1.0  0.36229  0.33970  0.62691  1.0000
  H   H7        1.0  0.63771  0.83970  0.62691  1.0000
  H   H8        1.0  0.63771  0.66030  0.37309  1.0000
  H   H9        1.0  0.33749  0.14250  0.11493  1.0000
  H   H10       1.0  0.33748  0.35750  0.88507  1.0000
  H   H11       1.0  0.66251  0.85750  0.88507  1.0000
  H   H12       1.0  0.66252  0.64250  0.11493  1.0000
  H   H13       1.0  0.45786  0.36897  0.40606  1.0000
  H   H14       1.0  0.45786  0.13105  0.59394  1.0000
  H   H15       1.0  0.54214  0.63105  0.59395  1.0000
  H   H16       1.0  0.54214  0.86896  0.40606  1.0000
  H   H17       1.0  0.89905  0.44810  0.09071  1.0000
  H   H18       1.0  0.89904  0.05190  0.90929  1.0000
  H   H19       1.0  0.10094  0.55190  0.90929  1.0000
  H   H20       1.0  0.10096  0.94810  0.09071  1.0000
  H   H21       1.0  0.06906  0.55220  0.12608  1.0000
  H   H22       1.0  0.06905  0.94780  0.87392  1.0000
  H   H23       1.0  0.93093  0.44780  0.87392  1.0000
  H   H24       1.0  0.93095  0.05220  0.12608  1.0000
  C   C1        1.0  0.53371  0.43890  0.13891  1.0000
  C   C2        1.0  0.53370  0.06110  0.86108  1.0000
  C   C3        1.0  0.46629  0.56110  0.86109  1.0000
  C   C4        1.0  0.46630  0.93890  0.13892  1.0000
  C   C5        1.0  0.50761  0.27838  0.07536  1.0000
  C   C6        1.0  0.50761  0.22163  0.92463  1.0000
  C   C7        1.0  0.49239  0.72162  0.92464  1.0000
  C   C8        1.0  0.49239  0.77837  0.07537  1.0000
  C   C9        1.0  0.26013  0.24450  0.42981  1.0000
  C   C10       1.0  0.26013  0.25550  0.57019  1.0000
  C   C11       1.0  0.73988  0.75551  0.57019  1.0000
  C   C12       1.0  0.73988  0.74450  0.42982  1.0000
  C   C13       1.0  0.06576  0.19787  0.36217  1.0000
  C   C14       1.0  0.06574  0.30211  0.63784  1.0000
  C   C15       1.0  0.93425  0.80213  0.63783  1.0000
  C   C16       1.0  0.93425  0.69788  0.36216  1.0000
  O   O1        1.0  0.42355  0.51397  0.23081  1.0000
  O   O2        1.0  0.42354  0.98602  0.76919  1.0000
  O   O3        1.0  0.57644  0.48602  0.76919  1.0000
  O   O4        1.0  0.57646  0.01397  0.23081  1.0000
  O   O5        1.0  0.67053  0.48754  0.09448  1.0000
  O   O6        1.0  0.67053  0.01246  0.90552  1.0000
  O   O7        1.0  0.32946  0.51246  0.90552  1.0000
  O   O8        1.0  0.32947  0.98754  0.09449  1.0000
  O   O9        1.0  0.33907  0.24510  0.12563  1.0000
  O   O10       1.0  0.33907  0.25490  0.87437  1.0000
  O   O11       1.0  0.66093  0.75490  0.87437  1.0000
  O   O12       1.0  0.66093  0.74510  0.12563  1.0000
  O   O13       1.0  0.32090  0.37590  0.42539  1.0000
  O   O14       1.0  0.32090  0.12411  0.57461  1.0000
  O   O15       1.0  0.67910  0.62410  0.57461  1.0000
  O   O16       1.0  0.67910  0.87590  0.42539  1.0000
  O   O17       1.0  0.00585  0.24984  0.28458  1.0000
  O   O18       1.0  0.00584  0.25016  0.71542  1.0000
  O   O19       1.0  0.99416  0.75016  0.71542  1.0000
  O   O20       1.0  0.99416  0.74984  0.28459  1.0000
  O   O21       1.0  0.98365  0.10122  0.38459  1.0000
  O   O22       1.0  0.98363  0.39878  0.61541  1.0000
  O   O23       1.0  0.01637  0.89877  0.61541  1.0000
  O   O24       1.0  0.01637  0.60122  0.38459  1.0000
  O   O25       1.0  0.04163  0.45144  0.10078  1.0000
  O   O26       1.0  0.04162  0.04856  0.89922  1.0000
  O   O27       1.0  0.95836  0.54856  0.89922  1.0000
  O   O28       1.0  0.95838  0.95144  0.10078  1.0000
