data_image0
_chemical_formula_structural       Zn2H26C40N6O8
_chemical_formula_sum              "Zn2 H26 C40 N6 O8"
_cell_length_a       8.10582
_cell_length_b       9.17717
_cell_length_c       13.4014
_cell_angle_alpha    92.1436
_cell_angle_beta     106.388
_cell_angle_gamma    113.914

_space_group_name_H-M_alt    "P 1"
_space_group_IT_number       1

loop_
  _space_group_symop_operation_xyz
  'x, y, z'

loop_
  _atom_site_type_symbol
  _atom_site_label
  _atom_site_symmetry_multiplicity
  _atom_site_fract_x
  _atom_site_fract_y
  _atom_site_fract_z
  _atom_site_occupancy
  Zn  Zn1       1.0  0.38001  0.45458  0.33685  1.0000
  Zn  Zn2       1.0  0.61999  0.54542  0.66315  1.0000
  H   H1        1.0  0.58256  0.96222  0.61579  1.0000
  H   H2        1.0  0.41744  0.03778  0.38421  1.0000
  H   H3        1.0  0.45948  0.15171  0.67399  1.0000
  H   H4        1.0  0.54051  0.84829  0.32600  1.0000
  H   H5        1.0  0.11476  0.06126  0.63429  1.0000
  H   H6        1.0  0.88523  0.93873  0.36571  1.0000
  H   H7        1.0  0.88555  0.77707  0.54050  1.0000
  H   H8        1.0  0.11445  0.22293  0.45950  1.0000
  H   H9        1.0  0.96458  0.72502  0.33348  1.0000
  H   H10       1.0  0.03542  0.27498  0.66652  1.0000
  H   H11       1.0  0.24839  0.82672  0.27438  1.0000
  H   H12       1.0  0.75161  0.17328  0.72562  1.0000
  H   H13       1.0  0.21370  0.76225  0.08531  1.0000
  H   H14       1.0  0.78630  0.23775  0.91469  1.0000
  H   H15       1.0  0.88574  0.60028  0.95450  1.0000
  H   H16       1.0  0.11425  0.39972  0.04550  1.0000
  H   H17       1.0  0.99597  0.44026  0.27354  1.0000
  H   H18       1.0  0.00403  0.55974  0.72646  1.0000
  H   H19       1.0  0.67134  0.26372  0.15421  1.0000
  H   H20       1.0  0.32866  0.73628  0.84579  1.0000
  H   H21       1.0  0.89688  0.93614  0.07360  1.0000
  H   H22       1.0  0.10312  0.06386  0.92640  1.0000
  H   H23       1.0  0.21680  0.13344  0.19578  1.0000
  H   H24       1.0  0.78320  0.86656  0.80422  1.0000
  H   H25       1.0  0.55810  0.86057  0.99003  1.0000
  H   H26       1.0  0.44190  0.13943  0.00997  1.0000
  C   C1        1.0  0.38710  0.66848  0.50433  1.0000
  C   C2        1.0  0.61290  0.33153  0.49567  1.0000
  C   C3        1.0  0.30630  0.76492  0.55016  1.0000
  C   C4        1.0  0.69370  0.23508  0.44984  1.0000
  C   C5        1.0  0.43085  0.92263  0.60301  1.0000
  C   C6        1.0  0.56915  0.07737  0.39699  1.0000
  C   C7        1.0  0.36273  0.02794  0.63442  1.0000
  C   C8        1.0  0.63727  0.97206  0.36558  1.0000
  C   C9        1.0  0.16675  0.97728  0.61132  1.0000
  C   C10       1.0  0.83325  0.02271  0.38868  1.0000
  C   C11       1.0  0.03936  0.82055  0.55892  1.0000
  C   C12       1.0  0.96064  0.17945  0.44108  1.0000
  C   C13       1.0  0.10853  0.71262  0.53179  1.0000
  C   C14       1.0  0.89147  0.28738  0.46821  1.0000
  C   C15       1.0  0.60571  0.52356  0.22203  1.0000
  C   C16       1.0  0.39429  0.47644  0.77797  1.0000
  C   C17       1.0  0.76530  0.60844  0.17875  1.0000
  C   C18       1.0  0.23471  0.39156  0.82125  1.0000
  C   C19       1.0  0.94772  0.70258  0.25002  1.0000
  C   C20       1.0  0.05228  0.29742  0.74998  1.0000
  C   C21       1.0  0.10761  0.75887  0.21655  1.0000
  C   C22       1.0  0.89239  0.24113  0.78345  1.0000
  C   C23       1.0  0.08818  0.72159  0.11068  1.0000
  C   C24       1.0  0.91182  0.27840  0.88932  1.0000
  C   C25       1.0  0.90696  0.63071  0.03787  1.0000
  C   C26       1.0  0.09303  0.36929  0.96212  1.0000
  C   C27       1.0  0.74558  0.57760  0.07067  1.0000
  C   C28       1.0  0.25441  0.42240  0.92933  1.0000
  C   C29       1.0  0.96756  0.32874  0.22592  1.0000
  C   C30       1.0  0.03244  0.67126  0.77409  1.0000
  C   C31       1.0  0.78661  0.22906  0.15768  1.0000
  C   C32       1.0  0.21339  0.77093  0.84232  1.0000
  C   C33       1.0  0.75597  0.08553  0.09802  1.0000
  C   C34       1.0  0.24404  0.91447  0.90198  1.0000
  C   C35       1.0  0.91280  0.04790  0.11523  1.0000
  C   C36       1.0  0.08721  0.95211  0.88477  1.0000
  C   C37       1.0  0.09075  0.15537  0.18383  1.0000
  C   C38       1.0  0.90925  0.84463  0.81617  1.0000
  C   C39       1.0  0.57284  0.97945  0.01952  1.0000
  C   C40       1.0  0.42717  0.02055  0.98048  1.0000
  N   N1        1.0  0.97053  0.55300  0.48771  1.0000
  N   N2        1.0  0.02947  0.44699  0.51229  1.0000
  N   N3        1.0  0.56830  0.49167  0.99084  1.0000
  N   N4        1.0  0.43170  0.50834  0.00916  1.0000
  N   N5        1.0  0.11912  0.29529  0.23775  1.0000
  N   N6        1.0  0.88088  0.70471  0.76225  1.0000
  O   O1        1.0  0.30024  0.59930  0.40815  1.0000
  O   O2        1.0  0.69976  0.40069  0.59185  1.0000
  O   O3        1.0  0.54715  0.67429  0.55901  1.0000
  O   O4        1.0  0.45285  0.32571  0.44099  1.0000
  O   O5        1.0  0.51519  0.37211  0.20041  1.0000
  O   O6        1.0  0.48481  0.62789  0.79959  1.0000
  O   O7        1.0  0.58030  0.61227  0.28817  1.0000
  O   O8        1.0  0.41970  0.38774  0.71183  1.0000
