data_image0
_chemical_formula_structural       Na4Sr4H24C24N4O24
_chemical_formula_sum              "Na4 Sr4 H24 C24 N4 O24"
_cell_length_a       9.83251
_cell_length_b       9.8325
_cell_length_c       9.83252
_cell_angle_alpha    89.9999
_cell_angle_beta     90.0001
_cell_angle_gamma    89.9996

_space_group_name_H-M_alt    "P 1"
_space_group_IT_number       1

loop_
  _space_group_symop_operation_xyz
  'x, y, z'

loop_
  _atom_site_type_symbol
  _atom_site_label
  _atom_site_symmetry_multiplicity
  _atom_site_fract_x
  _atom_site_fract_y
  _atom_site_fract_z
  _atom_site_occupancy
  Na  Na1       1.0  0.83004  0.66996  0.33005  1.0000
  Na  Na2       1.0  0.66996  0.33005  0.83004  1.0000
  Na  Na3       1.0  0.16996  0.16995  0.16995  1.0000
  Na  Na4       1.0  0.33004  0.83004  0.66996  1.0000
  Sr  Sr1       1.0  0.15814  0.84186  0.34186  1.0000
  Sr  Sr2       1.0  0.34186  0.15814  0.84186  1.0000
  Sr  Sr3       1.0  0.84186  0.34186  0.15814  1.0000
  Sr  Sr4       1.0  0.65814  0.65814  0.65814  1.0000
  H   H1        1.0  0.33665  0.51288  0.31052  1.0000
  H   H2        1.0  0.16334  0.48711  0.81052  1.0000
  H   H3        1.0  0.66334  0.01289  0.18947  1.0000
  H   H4        1.0  0.83666  0.98712  0.68948  1.0000
  H   H5        1.0  0.31052  0.33665  0.51288  1.0000
  H   H6        1.0  0.81052  0.16335  0.48711  1.0000
  H   H7        1.0  0.18947  0.66335  0.01289  1.0000
  H   H8        1.0  0.68948  0.83666  0.98712  1.0000
  H   H9        1.0  0.51288  0.31053  0.33665  1.0000
  H   H10       1.0  0.48711  0.81052  0.16335  1.0000
  H   H11       1.0  0.01288  0.18947  0.66334  1.0000
  H   H12       1.0  0.98712  0.68948  0.83666  1.0000
  H   H13       1.0  0.32720  0.46523  0.13676  1.0000
  H   H14       1.0  0.17280  0.53476  0.63676  1.0000
  H   H15       1.0  0.67280  0.96524  0.36324  1.0000
  H   H16       1.0  0.82720  0.03476  0.86324  1.0000
  H   H17       1.0  0.13676  0.32720  0.46523  1.0000
  H   H18       1.0  0.63676  0.17280  0.53476  1.0000
  H   H19       1.0  0.36324  0.67280  0.96524  1.0000
  H   H20       1.0  0.86324  0.82720  0.03476  1.0000
  H   H21       1.0  0.46524  0.13676  0.32720  1.0000
  H   H22       1.0  0.53476  0.63676  0.17280  1.0000
  H   H23       1.0  0.96524  0.36324  0.67280  1.0000
  H   H24       1.0  0.03476  0.86324  0.82720  1.0000
  C   C1        1.0  0.13475  0.51411  0.23333  1.0000
  C   C2        1.0  0.36524  0.48590  0.73333  1.0000
  C   C3        1.0  0.86524  0.01409  0.26667  1.0000
  C   C4        1.0  0.63476  0.98590  0.76667  1.0000
  C   C5        1.0  0.23333  0.13475  0.51411  1.0000
  C   C6        1.0  0.73333  0.36524  0.48591  1.0000
  C   C7        1.0  0.26667  0.86524  0.01410  1.0000
  C   C8        1.0  0.76667  0.63476  0.98589  1.0000
  C   C9        1.0  0.51411  0.23333  0.13475  1.0000
  C   C10       1.0  0.48590  0.73333  0.36525  1.0000
  C   C11       1.0  0.01410  0.26667  0.86524  1.0000
  C   C12       1.0  0.98589  0.76667  0.63475  1.0000
  C   C13       1.0  0.28783  0.53810  0.21278  1.0000
  C   C14       1.0  0.21217  0.46190  0.71277  1.0000
  C   C15       1.0  0.71217  0.03811  0.28722  1.0000
  C   C16       1.0  0.78784  0.96190  0.78722  1.0000
  C   C17       1.0  0.21278  0.28783  0.53810  1.0000
  C   C18       1.0  0.71278  0.21217  0.46190  1.0000
  C   C19       1.0  0.28722  0.71216  0.03810  1.0000
  C   C20       1.0  0.78722  0.78784  0.96190  1.0000
  C   C21       1.0  0.53810  0.21278  0.28783  1.0000
  C   C22       1.0  0.46190  0.71278  0.21217  1.0000
  C   C23       1.0  0.03810  0.28722  0.71216  1.0000
  C   C24       1.0  0.96190  0.78722  0.78784  1.0000
  N   N1        1.0  0.32019  0.67980  0.17981  1.0000
  N   N2        1.0  0.17981  0.32019  0.67980  1.0000
  N   N3        1.0  0.67980  0.17981  0.32019  1.0000
  N   N4        1.0  0.82020  0.82020  0.82019  1.0000
  O   O1        1.0  0.06190  0.61390  0.27058  1.0000
  O   O2        1.0  0.43810  0.38610  0.77059  1.0000
  O   O3        1.0  0.93811  0.11391  0.22941  1.0000
  O   O4        1.0  0.56190  0.88610  0.72942  1.0000
  O   O5        1.0  0.27058  0.06190  0.61389  1.0000
  O   O6        1.0  0.77059  0.43811  0.38609  1.0000
  O   O7        1.0  0.22941  0.93811  0.11391  1.0000
  O   O8        1.0  0.72941  0.56190  0.88611  1.0000
  O   O9        1.0  0.61390  0.27058  0.06190  1.0000
  O   O10       1.0  0.38610  0.77059  0.43811  1.0000
  O   O11       1.0  0.11391  0.22941  0.93811  1.0000
  O   O12       1.0  0.88610  0.72942  0.56190  1.0000
  O   O13       1.0  0.09141  0.39392  0.21477  1.0000
  O   O14       1.0  0.40858  0.60607  0.71477  1.0000
  O   O15       1.0  0.90858  0.89394  0.28522  1.0000
  O   O16       1.0  0.59142  0.10608  0.78523  1.0000
  O   O17       1.0  0.21477  0.09142  0.39392  1.0000
  O   O18       1.0  0.71477  0.40858  0.60606  1.0000
  O   O19       1.0  0.28522  0.90858  0.89394  1.0000
  O   O20       1.0  0.78523  0.59142  0.10608  1.0000
  O   O21       1.0  0.39393  0.21478  0.09142  1.0000
  O   O22       1.0  0.60606  0.71477  0.40858  1.0000
  O   O23       1.0  0.89393  0.28523  0.90858  1.0000
  O   O24       1.0  0.10607  0.78523  0.59142  1.0000
