data_image0
_chemical_formula_structural       Cu4H16C20S6I4N4
_chemical_formula_sum              "Cu4 H16 C20 S6 I4 N4"
_cell_length_a       4.06505
_cell_length_b       15.0571
_cell_length_c       15.422
_cell_angle_alpha    74.2857
_cell_angle_beta     82.6323
_cell_angle_gamma    82.3839

_space_group_name_H-M_alt    "P 1"
_space_group_IT_number       1

loop_
  _space_group_symop_operation_xyz
  'x, y, z'

loop_
  _atom_site_type_symbol
  _atom_site_label
  _atom_site_symmetry_multiplicity
  _atom_site_fract_x
  _atom_site_fract_y
  _atom_site_fract_z
  _atom_site_occupancy
  Cu  Cu1       1.0  0.02964  0.21290  0.30273  1.0000
  Cu  Cu2       1.0  0.54512  0.28695  0.19784  1.0000
  Cu  Cu3       1.0  0.97035  0.78710  0.69726  1.0000
  Cu  Cu4       1.0  0.45487  0.71305  0.80216  1.0000
  H   H1        1.0  0.19373  0.07524  0.47482  1.0000
  H   H2        1.0  0.74715  0.42453  0.02615  1.0000
  H   H3        1.0  0.80628  0.92476  0.52518  1.0000
  H   H4        1.0  0.25285  0.57548  0.97386  1.0000
  H   H5        1.0  0.97413  0.04155  0.63717  1.0000
  H   H6        1.0  0.65722  0.45835  0.86346  1.0000
  H   H7        1.0  0.02588  0.95845  0.36283  1.0000
  H   H8        1.0  0.34275  0.54166  0.13655  1.0000
  H   H9        1.0  0.34687  0.30239  0.57228  1.0000
  H   H10       1.0  0.22155  0.19782  0.92706  1.0000
  H   H11       1.0  0.65315  0.69761  0.42773  1.0000
  H   H12       1.0  0.77846  0.80218  0.07294  1.0000
  H   H13       1.0  0.58923  0.32325  0.41174  1.0000
  H   H14       1.0  0.32381  0.17676  0.08796  1.0000
  H   H15       1.0  0.41077  0.67675  0.58826  1.0000
  H   H16       1.0  0.67621  0.82325  0.91204  1.0000
  C   C1        1.0  0.00291  0.12339  0.49922  1.0000
  C   C2        1.0  0.62839  0.37643  0.00136  1.0000
  C   C3        1.0  0.99710  0.87661  0.50078  1.0000
  C   C4        1.0  0.37159  0.62358  0.99864  1.0000
  C   C5        1.0  0.88054  0.10508  0.58984  1.0000
  C   C6        1.0  0.57898  0.39479  0.91055  1.0000
  C   C7        1.0  0.11947  0.89492  0.41016  1.0000
  C   C8        1.0  0.42100  0.60522  0.08945  1.0000
  C   C9        1.0  0.64025  0.17000  0.61821  1.0000
  C   C10       1.0  0.43078  0.33005  0.88173  1.0000
  C   C11       1.0  0.35976  0.83000  0.38179  1.0000
  C   C12       1.0  0.56921  0.66995  0.11827  1.0000
  C   C13       1.0  0.53525  0.25042  0.55378  1.0000
  C   C14       1.0  0.34061  0.24963  0.94591  1.0000
  C   C15       1.0  0.46476  0.74957  0.44623  1.0000
  C   C16       1.0  0.65939  0.75037  0.05409  1.0000
  C   C17       1.0  0.66900  0.26223  0.46436  1.0000
  C   C18       1.0  0.39638  0.23774  0.03555  1.0000
  C   C19       1.0  0.33101  0.73776  0.53564  1.0000
  C   C20       1.0  0.60363  0.76226  0.96445  1.0000
  S   S1        1.0  0.49207  0.14239  0.73416  1.0000
  S   S2        1.0  0.37123  0.35804  0.76560  1.0000
  S   S3        1.0  0.50793  0.85760  0.26584  1.0000
  S   S4        1.0  0.62877  0.64196  0.23440  1.0000
  S   S5        1.0  0.14141  0.25033  0.74953  1.0000
  S   S6        1.0  0.85860  0.74967  0.25047  1.0000
  I   I1        1.0  0.96544  0.39118  0.22740  1.0000
  I   I2        1.0  0.57870  0.10861  0.27332  1.0000
  I   I3        1.0  0.03455  0.60882  0.77261  1.0000
  I   I4        1.0  0.42129  0.89139  0.72668  1.0000
  N   N1        1.0  0.89970  0.20019  0.43645  1.0000
  N   N2        1.0  0.53804  0.29964  0.06389  1.0000
  N   N3        1.0  0.10030  0.79980  0.56355  1.0000
  N   N4        1.0  0.46196  0.70036  0.93611  1.0000
