data_image0
_chemical_formula_structural       Cu4H32C40S4Br4N8
_chemical_formula_sum              "Cu4 H32 C40 S4 Br4 N8"
_cell_length_a       9.2771
_cell_length_b       9.54904
_cell_length_c       12.644
_cell_angle_alpha    89.9997
_cell_angle_beta     90.0001
_cell_angle_gamma    101.444

_space_group_name_H-M_alt    "P 1"
_space_group_IT_number       1

loop_
  _space_group_symop_operation_xyz
  'x, y, z'

loop_
  _atom_site_type_symbol
  _atom_site_label
  _atom_site_symmetry_multiplicity
  _atom_site_fract_x
  _atom_site_fract_y
  _atom_site_fract_z
  _atom_site_occupancy
  Cu  Cu1       1.0  0.01262  0.88544  0.93597  1.0000
  Cu  Cu2       1.0  0.98738  0.61456  0.43597  1.0000
  Cu  Cu3       1.0  0.98738  0.11456  0.06403  1.0000
  Cu  Cu4       1.0  0.01262  0.38544  0.56403  1.0000
  H   H1        1.0  0.03573  0.75482  0.72983  1.0000
  H   H2        1.0  0.96427  0.74518  0.22983  1.0000
  H   H3        1.0  0.96427  0.24517  0.27017  1.0000
  H   H4        1.0  0.03573  0.25482  0.77018  1.0000
  H   H5        1.0  0.22727  0.70026  0.61171  1.0000
  H   H6        1.0  0.77274  0.79973  0.11171  1.0000
  H   H7        1.0  0.77273  0.29973  0.38829  1.0000
  H   H8        1.0  0.22727  0.20026  0.88829  1.0000
  H   H9        1.0  0.55222  0.94098  0.82485  1.0000
  H   H10       1.0  0.44778  0.55901  0.32485  1.0000
  H   H11       1.0  0.44778  0.05902  0.17514  1.0000
  H   H12       1.0  0.55222  0.44099  0.67515  1.0000
  H   H13       1.0  0.34321  0.97911  0.93814  1.0000
  H   H14       1.0  0.65679  0.52088  0.43814  1.0000
  H   H15       1.0  0.65679  0.02089  0.06186  1.0000
  H   H16       1.0  0.34321  0.47912  0.56186  1.0000
  H   H17       1.0  0.03168  0.08187  0.58470  1.0000
  H   H18       1.0  0.96832  0.41814  0.08470  1.0000
  H   H19       1.0  0.96832  0.91813  0.41530  1.0000
  H   H20       1.0  0.03168  0.58187  0.91530  1.0000
  H   H21       1.0  0.86380  0.84608  0.61212  1.0000
  H   H22       1.0  0.13620  0.65392  0.11212  1.0000
  H   H23       1.0  0.13620  0.15392  0.38788  1.0000
  H   H24       1.0  0.86380  0.34608  0.88788  1.0000
  H   H25       1.0  0.50265  0.07225  0.61621  1.0000
  H   H26       1.0  0.49736  0.42775  0.11621  1.0000
  H   H27       1.0  0.49736  0.92775  0.38379  1.0000
  H   H28       1.0  0.50264  0.57225  0.88379  1.0000
  H   H29       1.0  0.68595  0.29655  0.58736  1.0000
  H   H30       1.0  0.31405  0.20345  0.08737  1.0000
  H   H31       1.0  0.31405  0.70346  0.41263  1.0000
  H   H32       1.0  0.68595  0.79655  0.91263  1.0000
  C   C1        1.0  0.15127  0.79472  0.74902  1.0000
  C   C2        1.0  0.84873  0.70528  0.24902  1.0000
  C   C3        1.0  0.84873  0.20528  0.25098  1.0000
  C   C4        1.0  0.15127  0.29472  0.75098  1.0000
  C   C5        1.0  0.26006  0.76366  0.68246  1.0000
  C   C6        1.0  0.73994  0.73633  0.18247  1.0000
  C   C7        1.0  0.73994  0.23633  0.31753  1.0000
  C   C8        1.0  0.26006  0.26366  0.81754  1.0000
  C   C9        1.0  0.40763  0.81643  0.70803  1.0000
  C   C10       1.0  0.59237  0.68356  0.20803  1.0000
  C   C11       1.0  0.59237  0.18357  0.29197  1.0000
  C   C12       1.0  0.40763  0.31644  0.79197  1.0000
  C   C13       1.0  0.43908  0.89696  0.80127  1.0000
  C   C14       1.0  0.56092  0.60303  0.30127  1.0000
  C   C15       1.0  0.56091  0.10304  0.19873  1.0000
  C   C16       1.0  0.43908  0.39696  0.69873  1.0000
  C   C17       1.0  0.32339  0.92086  0.86356  1.0000
  C   C18       1.0  0.67661  0.57914  0.36356  1.0000
  C   C19       1.0  0.67661  0.07914  0.13644  1.0000
  C   C20       1.0  0.32339  0.42086  0.63644  1.0000
  C   C21       1.0  0.91329  0.07484  0.59065  1.0000
  C   C22       1.0  0.08671  0.42516  0.09065  1.0000
  C   C23       1.0  0.08671  0.92516  0.40935  1.0000
  C   C24       1.0  0.91329  0.57484  0.90935  1.0000
  C   C25       1.0  0.81993  0.94376  0.60654  1.0000
  C   C26       1.0  0.18008  0.55624  0.10654  1.0000
  C   C27       1.0  0.18008  0.05624  0.39346  1.0000
  C   C28       1.0  0.81992  0.44376  0.89346  1.0000
  C   C29       1.0  0.66854  0.93923  0.61579  1.0000
  C   C30       1.0  0.33146  0.56077  0.11580  1.0000
  C   C31       1.0  0.33146  0.06077  0.38420  1.0000
  C   C32       1.0  0.66854  0.43923  0.88421  1.0000
  C   C33       1.0  0.61886  0.06852  0.60937  1.0000
  C   C34       1.0  0.38115  0.43148  0.10937  1.0000
  C   C35       1.0  0.38115  0.93149  0.39063  1.0000
  C   C36       1.0  0.61885  0.56852  0.89063  1.0000
  C   C37       1.0  0.72049  0.19409  0.59307  1.0000
  C   C38       1.0  0.27951  0.30590  0.09307  1.0000
  C   C39       1.0  0.27951  0.80591  0.40693  1.0000
  C   C40       1.0  0.72049  0.69410  0.90693  1.0000
  S   S1        1.0  0.54899  0.77217  0.62918  1.0000
  S   S2        1.0  0.45102  0.72783  0.12918  1.0000
  S   S3        1.0  0.45101  0.22783  0.37082  1.0000
  S   S4        1.0  0.54899  0.27217  0.87082  1.0000
  Br  Br1       1.0  0.14161  0.93691  0.10876  1.0000
  Br  Br2       1.0  0.85839  0.56308  0.60877  1.0000
  Br  Br3       1.0  0.85839  0.06308  0.89124  1.0000
  Br  Br4       1.0  0.14161  0.43692  0.39124  1.0000
  N   N1        1.0  0.18032  0.87184  0.83873  1.0000
  N   N2        1.0  0.81968  0.62816  0.33874  1.0000
  N   N3        1.0  0.81967  0.12815  0.16126  1.0000
  N   N4        1.0  0.18032  0.37185  0.66127  1.0000
  N   N5        1.0  0.86646  0.19958  0.58242  1.0000
  N   N6        1.0  0.13355  0.30042  0.08242  1.0000
  N   N7        1.0  0.13354  0.80042  0.41758  1.0000
  N   N8        1.0  0.86645  0.69958  0.91757  1.0000
