data_image0
_chemical_formula_structural       K2H26C22S2N4O12
_chemical_formula_sum              "K2 H26 C22 S2 N4 O12"
_cell_length_a       5.47745
_cell_length_b       7.75431
_cell_length_c       16.881
_cell_angle_alpha    88.2512
_cell_angle_beta     91.6881
_cell_angle_gamma    105.444

_space_group_name_H-M_alt    "P 1"
_space_group_IT_number       1

loop_
  _space_group_symop_operation_xyz
  'x, y, z'

loop_
  _atom_site_type_symbol
  _atom_site_label
  _atom_site_symmetry_multiplicity
  _atom_site_fract_x
  _atom_site_fract_y
  _atom_site_fract_z
  _atom_site_occupancy
  K   K1        1.0  0.60865  0.25306  0.47967  1.0000
  K   K2        1.0  0.39134  0.74694  0.52033  1.0000
  H   H1        1.0  0.52776  0.73552  0.29231  1.0000
  H   H2        1.0  0.47225  0.26449  0.70769  1.0000
  H   H3        1.0  0.44846  0.62702  0.15370  1.0000
  H   H4        1.0  0.55155  0.37296  0.84631  1.0000
  H   H5        1.0  0.78779  0.73545  0.05369  1.0000
  H   H6        1.0  0.21220  0.26452  0.94632  1.0000
  H   H7        1.0  0.18938  0.95567  0.09165  1.0000
  H   H8        1.0  0.81061  0.04431  0.90834  1.0000
  H   H9        1.0  0.05499  0.54982  0.33088  1.0000
  H   H10       1.0  0.94500  0.45020  0.66912  1.0000
  H   H11       1.0  0.07831  0.58573  0.22505  1.0000
  H   H12       1.0  0.92169  0.41428  0.77495  1.0000
  H   H13       1.0  0.19159  0.41446  0.27053  1.0000
  H   H14       1.0  0.80841  0.58556  0.72947  1.0000
  H   H15       1.0  0.80755  0.35988  0.98708  1.0000
  H   H16       1.0  0.19250  0.64008  0.01292  1.0000
  H   H17       1.0  0.51525  0.32386  0.03910  1.0000
  H   H18       1.0  0.48479  0.67610  0.96089  1.0000
  H   H19       1.0  0.64337  0.14189  0.02455  1.0000
  H   H20       1.0  0.35670  0.85808  0.97546  1.0000
  H   H21       1.0  0.35855  0.14115  0.28838  1.0000
  H   H22       1.0  0.64142  0.85887  0.71162  1.0000
  H   H23       1.0  0.15841  0.31991  0.42959  1.0000
  H   H24       1.0  0.84159  0.68011  0.57041  1.0000
  H   H25       1.0  0.12684  0.34543  0.51915  1.0000
  H   H26       1.0  0.87316  0.65457  0.48085  1.0000
  C   C1        1.0  0.90048  0.90240  0.26990  1.0000
  C   C2        1.0  0.09950  0.09761  0.73010  1.0000
  C   C3        1.0  0.67109  0.78231  0.24750  1.0000
  C   C4        1.0  0.32890  0.21769  0.75250  1.0000
  C   C5        1.0  0.62657  0.72254  0.17005  1.0000
  C   C6        1.0  0.37343  0.27745  0.82995  1.0000
  C   C7        1.0  0.81562  0.78397  0.11409  1.0000
  C   C8        1.0  0.18438  0.21602  0.88591  1.0000
  C   C9        1.0  0.04211  0.90601  0.13482  1.0000
  C   C10       1.0  0.95788  0.09398  0.86517  1.0000
  C   C11       1.0  0.08842  0.96816  0.21264  1.0000
  C   C12       1.0  0.91156  0.03184  0.78735  1.0000
  C   C13       1.0  0.04352  0.48557  0.27357  1.0000
  C   C14       1.0  0.95648  0.51444  0.72644  1.0000
  C   C15       1.0  0.78786  0.35664  0.26381  1.0000
  C   C16       1.0  0.21213  0.64336  0.73619  1.0000
  C   C17       1.0  0.69868  0.27524  0.18691  1.0000
  C   C18       1.0  0.30132  0.72476  0.81309  1.0000
  C   C19       1.0  0.84360  0.32339  0.11278  1.0000
  C   C20       1.0  0.15642  0.67659  0.88722  1.0000
  C   C21       1.0  0.69401  0.28618  0.03566  1.0000
  C   C22       1.0  0.30603  0.71380  0.96434  1.0000
  S   S1        1.0  0.94681  0.94959  0.37308  1.0000
  S   S2        1.0  0.05318  0.05043  0.62692  1.0000
  N   N1        1.0  0.31869  0.09347  0.23135  1.0000
  N   N2        1.0  0.68130  0.90654  0.76865  1.0000
  N   N3        1.0  0.47639  0.15713  0.17486  1.0000
  N   N4        1.0  0.52361  0.84287  0.82514  1.0000
  O   O1        1.0  0.64160  0.31930  0.32112  1.0000
  O   O2        1.0  0.35838  0.68072  0.67889  1.0000
  O   O3        1.0  0.07534  0.39233  0.11333  1.0000
  O   O4        1.0  0.92467  0.60767  0.88669  1.0000
  O   O5        1.0  0.04808  0.80512  0.40748  1.0000
  O   O6        1.0  0.95191  0.19491  0.59252  1.0000
  O   O7        1.0  0.69992  0.94875  0.40430  1.0000
  O   O8        1.0  0.30007  0.05128  0.59570  1.0000
  O   O9        1.0  0.13467  0.12525  0.37732  1.0000
  O   O10       1.0  0.86532  0.87478  0.62268  1.0000
  O   O11       1.0  0.19905  0.41147  0.47065  1.0000
  O   O12       1.0  0.80096  0.58854  0.52935  1.0000
