data_image0
_chemical_formula_structural       La2H28C28N18O22
_chemical_formula_sum              "La2 H28 C28 N18 O22"
_cell_length_a       7.4952
_cell_length_b       9.1072
_cell_length_c       15.1556
_cell_angle_alpha    89.9999
_cell_angle_beta     90.0001
_cell_angle_gamma    104.344

_space_group_name_H-M_alt    "P 1"
_space_group_IT_number       1

loop_
  _space_group_symop_operation_xyz
  'x, y, z'

loop_
  _atom_site_type_symbol
  _atom_site_label
  _atom_site_symmetry_multiplicity
  _atom_site_fract_x
  _atom_site_fract_y
  _atom_site_fract_z
  _atom_site_occupancy
  La  La1       1.0  0.61282  0.13793  0.75000  1.0000
  La  La2       1.0  0.38718  0.86207  0.25000  1.0000
  H   H1        1.0  0.74270  0.78074  0.42853  1.0000
  H   H2        1.0  0.25730  0.21926  0.92853  1.0000
  H   H3        1.0  0.25730  0.21926  0.57147  1.0000
  H   H4        1.0  0.74270  0.78074  0.07147  1.0000
  H   H5        1.0  0.80934  0.06423  0.50714  1.0000
  H   H6        1.0  0.19066  0.93577  0.00713  1.0000
  H   H7        1.0  0.19066  0.93577  0.49286  1.0000
  H   H8        1.0  0.80934  0.06423  0.99287  1.0000
  H   H9        1.0  0.96268  0.11387  0.41544  1.0000
  H   H10       1.0  0.03731  0.88613  0.91544  1.0000
  H   H11       1.0  0.03731  0.88613  0.58456  1.0000
  H   H12       1.0  0.96269  0.11387  0.08456  1.0000
  H   H13       1.0  0.92974  0.32733  0.32882  1.0000
  H   H14       1.0  0.07025  0.67266  0.82882  1.0000
  H   H15       1.0  0.07026  0.67267  0.67118  1.0000
  H   H16       1.0  0.92974  0.32733  0.17118  1.0000
  H   H17       1.0  0.62201  0.77383  0.58923  1.0000
  H   H18       1.0  0.37799  0.22617  0.08923  1.0000
  H   H19       1.0  0.37799  0.22617  0.41077  1.0000
  H   H20       1.0  0.62201  0.77383  0.91077  1.0000
  H   H21       1.0  0.58116  0.45845  0.69674  1.0000
  H   H22       1.0  0.41883  0.54155  0.19674  1.0000
  H   H23       1.0  0.41883  0.54155  0.30327  1.0000
  H   H24       1.0  0.58116  0.45845  0.80326  1.0000
  H   H25       1.0  0.00867  0.35920  0.80152  1.0000
  H   H26       1.0  0.99133  0.64080  0.30153  1.0000
  H   H27       1.0  0.99133  0.64080  0.19848  1.0000
  H   H28       1.0  0.00867  0.35919  0.69848  1.0000
  C   C1        1.0  0.67996  0.03152  0.37872  1.0000
  C   C2        1.0  0.32004  0.96848  0.87872  1.0000
  C   C3        1.0  0.32004  0.96848  0.62128  1.0000
  C   C4        1.0  0.67996  0.03152  0.12128  1.0000
  C   C5        1.0  0.82785  0.11819  0.44193  1.0000
  C   C6        1.0  0.17215  0.88181  0.94192  1.0000
  C   C7        1.0  0.17215  0.88181  0.55808  1.0000
  C   C8        1.0  0.82785  0.11819  0.05808  1.0000
  C   C9        1.0  0.86994  0.37376  0.38454  1.0000
  C   C10       1.0  0.13006  0.62624  0.88454  1.0000
  C   C11       1.0  0.13006  0.62624  0.61546  1.0000
  C   C12       1.0  0.86994  0.37376  0.11546  1.0000
  C   C13       1.0  0.74459  0.31555  0.53310  1.0000
  C   C14       1.0  0.25541  0.68445  0.03310  1.0000
  C   C15       1.0  0.25541  0.68445  0.46690  1.0000
  C   C16       1.0  0.74459  0.31555  0.96690  1.0000
  C   C17       1.0  0.72920  0.46785  0.53241  1.0000
  C   C18       1.0  0.27081  0.53215  0.03241  1.0000
  C   C19       1.0  0.27080  0.53215  0.46759  1.0000
  C   C20       1.0  0.72920  0.46785  0.96759  1.0000
  C   C21       1.0  0.78194  0.55741  0.45713  1.0000
  C   C22       1.0  0.21807  0.44259  0.95713  1.0000
  C   C23       1.0  0.21806  0.44260  0.54287  1.0000
  C   C24       1.0  0.78194  0.55740  0.04287  1.0000
  C   C25       1.0  0.66941  0.68245  0.55818  1.0000
  C   C26       1.0  0.33059  0.31755  0.05818  1.0000
  C   C27       1.0  0.33059  0.31755  0.44182  1.0000
  C   C28       1.0  0.66941  0.68245  0.94182  1.0000
  N   N1        1.0  0.81868  0.27561  0.45356  1.0000
  N   N2        1.0  0.18132  0.72439  0.95356  1.0000
  N   N3        1.0  0.18132  0.72439  0.54644  1.0000
  N   N4        1.0  0.81868  0.27561  0.04644  1.0000
  N   N5        1.0  0.85639  0.51479  0.38298  1.0000
  N   N6        1.0  0.14361  0.48521  0.88298  1.0000
  N   N7        1.0  0.14361  0.48521  0.61702  1.0000
  N   N8        1.0  0.85639  0.51479  0.11702  1.0000
  N   N9        1.0  0.74367  0.69366  0.47485  1.0000
  N   N10       1.0  0.25633  0.30633  0.97485  1.0000
  N   N11       1.0  0.25633  0.30633  0.52515  1.0000
  N   N12       1.0  0.74367  0.69366  0.02515  1.0000
  N   N13       1.0  0.66000  0.54845  0.59528  1.0000
  N   N14       1.0  0.34001  0.45155  0.09528  1.0000
  N   N15       1.0  0.34000  0.45156  0.40472  1.0000
  N   N16       1.0  0.66000  0.54845  0.90472  1.0000
  N   N17       1.0  0.89007  0.93273  0.75000  1.0000
  N   N18       1.0  0.10993  0.06727  0.25000  1.0000
  O   O1        1.0  0.68619  0.89673  0.35845  1.0000
  O   O2        1.0  0.31381  0.10327  0.85845  1.0000
  O   O3        1.0  0.31381  0.10327  0.64155  1.0000
  O   O4        1.0  0.68619  0.89673  0.14155  1.0000
  O   O5        1.0  0.56022  0.09396  0.34826  1.0000
  O   O6        1.0  0.43979  0.90604  0.84826  1.0000
  O   O7        1.0  0.43979  0.90604  0.65174  1.0000
  O   O8        1.0  0.56021  0.09396  0.15174  1.0000
  O   O9        1.0  0.69936  0.21973  0.59333  1.0000
  O   O10       1.0  0.30065  0.78028  0.09333  1.0000
  O   O11       1.0  0.30064  0.78028  0.40667  1.0000
  O   O12       1.0  0.69936  0.21973  0.90667  1.0000
  O   O13       1.0  0.83715  0.98092  0.67795  1.0000
  O   O14       1.0  0.16285  0.01908  0.17795  1.0000
  O   O15       1.0  0.16285  0.01908  0.32205  1.0000
  O   O16       1.0  0.83715  0.98092  0.82205  1.0000
  O   O17       1.0  0.98923  0.84079  0.75000  1.0000
  O   O18       1.0  0.01077  0.15922  0.25000  1.0000
  O   O19       1.0  0.93561  0.30957  0.75000  1.0000
  O   O20       1.0  0.06438  0.69043  0.25000  1.0000
  O   O21       1.0  0.54419  0.39263  0.75000  1.0000
  O   O22       1.0  0.45581  0.60737  0.25000  1.0000
