data_image0
_chemical_formula_structural       H28Pb2C28N16O16
_chemical_formula_sum              "H28 Pb2 C28 N16 O16"
_cell_length_a       6.8682
_cell_length_b       9.21973
_cell_length_c       13.5276
_cell_angle_alpha    90.001
_cell_angle_beta     93.2255
_cell_angle_gamma    90.0028

_space_group_name_H-M_alt    "P 1"
_space_group_IT_number       1

loop_
  _space_group_symop_operation_xyz
  'x, y, z'

loop_
  _atom_site_type_symbol
  _atom_site_label
  _atom_site_symmetry_multiplicity
  _atom_site_fract_x
  _atom_site_fract_y
  _atom_site_fract_z
  _atom_site_occupancy
  H   H1        1.0  0.15002  0.19172  0.26146  1.0000
  H   H2        1.0  0.34996  0.69168  0.23854  1.0000
  H   H3        1.0  0.84997  0.80830  0.73853  1.0000
  H   H4        1.0  0.65003  0.30832  0.76147  1.0000
  H   H5        1.0  0.98064  0.04684  0.25470  1.0000
  H   H6        1.0  0.51936  0.54687  0.24531  1.0000
  H   H7        1.0  0.01932  0.95318  0.74528  1.0000
  H   H8        1.0  0.48066  0.45312  0.75472  1.0000
  H   H9        1.0  0.42054  0.97242  0.70974  1.0000
  H   H10       1.0  0.07947  0.47246  0.79025  1.0000
  H   H11       1.0  0.57939  0.02756  0.29023  1.0000
  H   H12       1.0  0.92057  0.52760  0.20973  1.0000
  H   H13       1.0  0.28666  0.24632  0.40352  1.0000
  H   H14       1.0  0.21340  0.74632  0.09648  1.0000
  H   H15       1.0  0.71333  0.75371  0.59647  1.0000
  H   H16       1.0  0.78671  0.25370  0.90355  1.0000
  H   H17       1.0  0.29426  0.71002  0.71228  1.0000
  H   H18       1.0  0.20579  0.21010  0.78768  1.0000
  H   H19       1.0  0.70578  0.28995  0.28766  1.0000
  H   H20       1.0  0.79426  0.78998  0.21232  1.0000
  H   H21       1.0  0.31092  0.29160  0.59204  1.0000
  H   H22       1.0  0.18911  0.79163  0.90800  1.0000
  H   H23       1.0  0.68919  0.70832  0.40803  1.0000
  H   H24       1.0  0.81086  0.20836  0.09201  1.0000
  H   H25       1.0  0.42174  0.44081  0.59603  1.0000
  H   H26       1.0  0.07826  0.94083  0.90397  1.0000
  H   H27       1.0  0.57832  0.55914  0.40402  1.0000
  H   H28       1.0  0.92167  0.05919  0.09600  1.0000
  Pb  Pb1       1.0  0.00022  0.49998  0.50003  1.0000
  Pb  Pb2       1.0  0.49978  1.00000  0.99999  1.0000
  C   C1        1.0  0.14823  0.89021  0.40106  1.0000
  C   C2        1.0  0.35170  0.39024  0.09893  1.0000
  C   C3        1.0  0.85174  0.10977  0.59889  1.0000
  C   C4        1.0  0.64819  0.60976  0.90110  1.0000
  C   C5        1.0  0.20309  0.86776  0.50337  1.0000
  C   C6        1.0  0.29694  0.36781  0.99660  1.0000
  C   C7        1.0  0.79688  0.13221  0.49658  1.0000
  C   C8        1.0  0.70310  0.63221  0.00341  1.0000
  C   C9        1.0  0.13451  0.07381  0.26964  1.0000
  C   C10       1.0  0.36549  0.57380  0.23036  1.0000
  C   C11       1.0  0.86546  0.92620  0.73033  1.0000
  C   C12       1.0  0.63455  0.42619  0.76965  1.0000
  C   C13       1.0  0.28808  0.98028  0.56031  1.0000
  C   C14       1.0  0.21193  0.48031  0.93968  1.0000
  C   C15       1.0  0.71191  0.01969  0.43965  1.0000
  C   C16       1.0  0.78808  0.51971  0.06034  1.0000
  C   C17       1.0  0.26786  0.13836  0.43484  1.0000
  C   C18       1.0  0.23216  0.63837  0.06520  1.0000
  C   C19       1.0  0.73216  0.86163  0.56516  1.0000
  C   C20       1.0  0.76781  0.36162  0.93485  1.0000
  C   C21       1.0  0.27410  0.78093  0.64860  1.0000
  C   C22       1.0  0.22594  0.28097  0.85139  1.0000
  C   C23       1.0  0.72586  0.21905  0.35136  1.0000
  C   C24       1.0  0.77415  0.71909  0.14862  1.0000
  C   C25       1.0  0.25135  0.00078  0.19061  1.0000
  C   C26       1.0  0.24860  0.50079  0.30941  1.0000
  C   C27       1.0  0.74866  0.99929  0.80939  1.0000
  C   C28       1.0  0.75146  0.49918  0.69060  1.0000
  N   N1        1.0  0.31870  0.11776  0.52899  1.0000
  N   N2        1.0  0.18135  0.61779  0.97105  1.0000
  N   N3        1.0  0.68128  0.88221  0.47100  1.0000
  N   N4        1.0  0.81870  0.38221  0.02899  1.0000
  N   N5        1.0  0.19148  0.03507  0.37170  1.0000
  N   N6        1.0  0.30857  0.53509  0.12831  1.0000
  N   N7        1.0  0.80851  0.96494  0.62827  1.0000
  N   N8        1.0  0.69148  0.46494  0.87171  1.0000
  N   N9        1.0  0.19326  0.74428  0.56041  1.0000
  N   N10       1.0  0.30668  0.24430  0.93958  1.0000
  N   N11       1.0  0.80665  0.25572  0.43954  1.0000
  N   N12       1.0  0.69324  0.75571  0.06045  1.0000
  N   N13       1.0  0.33284  0.92291  0.65226  1.0000
  N   N14       1.0  0.16714  0.42294  0.84773  1.0000
  N   N15       1.0  0.66710  0.07706  0.34770  1.0000
  N   N16       1.0  0.83283  0.57708  0.15229  1.0000
  O   O1        1.0  0.07226  0.80285  0.34071  1.0000
  O   O2        1.0  0.42766  0.30293  0.15929  1.0000
  O   O3        1.0  0.92769  0.19713  0.65927  1.0000
  O   O4        1.0  0.57227  0.69711  0.84073  1.0000
  O   O5        1.0  0.16695  0.99530  0.10452  1.0000
  O   O6        1.0  0.33310  0.49523  0.39545  1.0000
  O   O7        1.0  0.83307  0.00475  0.89545  1.0000
  O   O8        1.0  0.66699  0.50471  0.60455  1.0000
  O   O9        1.0  0.42279  0.95357  0.21052  1.0000
  O   O10       1.0  0.07717  0.45360  0.28948  1.0000
  O   O11       1.0  0.57715  0.04638  0.78949  1.0000
  O   O12       1.0  0.92289  0.54646  0.71051  1.0000
  O   O13       1.0  0.29436  0.39538  0.60986  1.0000
  O   O14       1.0  0.20566  0.89540  0.89015  1.0000
  O   O15       1.0  0.70572  0.60455  0.39020  1.0000
  O   O16       1.0  0.79428  0.10457  0.10983  1.0000
