data_image0
_chemical_formula_structural       Cd4H16C28N16O12
_chemical_formula_sum              "Cd4 H16 C28 N16 O12"
_cell_length_a       8.89413
_cell_length_b       9.65095
_cell_length_c       10.744
_cell_angle_alpha    90
_cell_angle_beta     89.9999
_cell_angle_gamma    111.037

_space_group_name_H-M_alt    "P 1"
_space_group_IT_number       1

loop_
  _space_group_symop_operation_xyz
  'x, y, z'

loop_
  _atom_site_type_symbol
  _atom_site_label
  _atom_site_symmetry_multiplicity
  _atom_site_fract_x
  _atom_site_fract_y
  _atom_site_fract_z
  _atom_site_occupancy
  Cd  Cd1       1.0  0.84964  0.69555  0.27642  1.0000
  Cd  Cd2       1.0  0.65037  0.30445  0.77642  1.0000
  Cd  Cd3       1.0  0.15037  0.30445  0.72358  1.0000
  Cd  Cd4       1.0  0.34963  0.69555  0.22358  1.0000
  H   H1        1.0  0.86132  0.58316  0.97580  1.0000
  H   H2        1.0  0.63868  0.41684  0.47580  1.0000
  H   H3        1.0  0.13868  0.41684  0.02420  1.0000
  H   H4        1.0  0.36132  0.58316  0.52420  1.0000
  H   H5        1.0  0.28423  0.22084  0.34891  1.0000
  H   H6        1.0  0.21577  0.77916  0.84891  1.0000
  H   H7        1.0  0.71577  0.77917  0.65109  1.0000
  H   H8        1.0  0.78423  0.22083  0.15109  1.0000
  H   H9        1.0  0.07568  0.03904  0.08812  1.0000
  H   H10       1.0  0.42432  0.96096  0.58812  1.0000
  H   H11       1.0  0.92432  0.96096  0.91188  1.0000
  H   H12       1.0  0.57568  0.03904  0.41188  1.0000
  H   H13       1.0  0.08687  0.04833  0.25269  1.0000
  H   H14       1.0  0.41313  0.95167  0.75269  1.0000
  H   H15       1.0  0.91313  0.95167  0.74731  1.0000
  H   H16       1.0  0.58687  0.04833  0.24731  1.0000
  C   C1        1.0  0.75186  0.51132  0.02133  1.0000
  C   C2        1.0  0.74814  0.48868  0.52133  1.0000
  C   C3        1.0  0.24814  0.48868  0.97867  1.0000
  C   C4        1.0  0.25186  0.51132  0.47867  1.0000
  C   C5        1.0  0.57170  0.41120  0.16274  1.0000
  C   C6        1.0  0.92830  0.58880  0.66273  1.0000
  C   C7        1.0  0.42830  0.58880  0.83726  1.0000
  C   C8        1.0  0.07170  0.41120  0.33726  1.0000
  C   C9        1.0  0.52515  0.33160  0.05155  1.0000
  C   C10       1.0  0.97485  0.66840  0.55155  1.0000
  C   C11       1.0  0.47485  0.66840  0.94845  1.0000
  C   C12       1.0  0.02515  0.33160  0.44845  1.0000
  C   C13       1.0  0.37830  0.20698  0.04267  1.0000
  C   C14       1.0  0.12170  0.79302  0.54267  1.0000
  C   C15       1.0  0.62170  0.79302  0.95733  1.0000
  C   C16       1.0  0.87830  0.20698  0.45733  1.0000
  C   C17       1.0  0.35713  0.26012  0.26542  1.0000
  C   C18       1.0  0.14287  0.73988  0.76542  1.0000
  C   C19       1.0  0.64287  0.73988  0.73458  1.0000
  C   C20       1.0  0.85713  0.26012  0.23458  1.0000
  C   C21       1.0  0.15440  0.04491  0.16802  1.0000
  C   C22       1.0  0.34560  0.95509  0.66801  1.0000
  C   C23       1.0  0.84560  0.95509  0.83198  1.0000
  C   C24       1.0  0.65440  0.04491  0.33199  1.0000
  C   C25       1.0  0.19595  0.90475  0.17229  1.0000
  C   C26       1.0  0.30404  0.09525  0.67229  1.0000
  C   C27       1.0  0.80405  0.09525  0.82771  1.0000
  C   C28       1.0  0.69595  0.90475  0.32771  1.0000
  N   N1        1.0  0.64111  0.39624  0.96311  1.0000
  N   N2        1.0  0.85889  0.60376  0.46311  1.0000
  N   N3        1.0  0.35889  0.60376  0.03689  1.0000
  N   N4        1.0  0.14111  0.39624  0.53689  1.0000
  N   N5        1.0  0.71447  0.52606  0.14162  1.0000
  N   N6        1.0  0.78553  0.47394  0.64162  1.0000
  N   N7        1.0  0.28553  0.47394  0.85838  1.0000
  N   N8        1.0  0.21447  0.52606  0.35838  1.0000
  N   N9        1.0  0.49024  0.37670  0.27258  1.0000
  N   N10       1.0  0.00976  0.62330  0.77257  1.0000
  N   N11       1.0  0.50976  0.62330  0.72743  1.0000
  N   N12       1.0  0.99024  0.37670  0.22743  1.0000
  N   N13       1.0  0.29769  0.17867  0.15995  1.0000
  N   N14       1.0  0.20231  0.82133  0.65994  1.0000
  N   N15       1.0  0.70231  0.82133  0.84005  1.0000
  N   N16       1.0  0.79769  0.17867  0.34005  1.0000
  O   O1        1.0  0.31952  0.12887  0.95037  1.0000
  O   O2        1.0  0.18048  0.87113  0.45037  1.0000
  O   O3        1.0  0.68048  0.87113  0.04963  1.0000
  O   O4        1.0  0.81952  0.12887  0.54963  1.0000
  O   O5        1.0  0.34319  0.92069  0.18231  1.0000
  O   O6        1.0  0.15681  0.07931  0.68231  1.0000
  O   O7        1.0  0.65681  0.07931  0.81769  1.0000
  O   O8        1.0  0.84319  0.92069  0.31769  1.0000
  O   O9        1.0  0.08284  0.77834  0.16673  1.0000
  O   O10       1.0  0.41716  0.22166  0.66673  1.0000
  O   O11       1.0  0.91716  0.22166  0.83327  1.0000
  O   O12       1.0  0.58284  0.77834  0.33327  1.0000
