data_image0
_chemical_formula_structural       Zn4H16C28N16O12
_chemical_formula_sum              "Zn4 H16 C28 N16 O12"
_cell_length_a       8.92061
_cell_length_b       9.29814
_cell_length_c       10.2115
_cell_angle_alpha    90
_cell_angle_beta     90.0002
_cell_angle_gamma    111.391

_space_group_name_H-M_alt    "P 1"
_space_group_IT_number       1

loop_
  _space_group_symop_operation_xyz
  'x, y, z'

loop_
  _atom_site_type_symbol
  _atom_site_label
  _atom_site_symmetry_multiplicity
  _atom_site_fract_x
  _atom_site_fract_y
  _atom_site_fract_z
  _atom_site_occupancy
  Zn  Zn1       1.0  0.15085  0.83502  0.80600  1.0000
  Zn  Zn2       1.0  0.34916  0.16498  0.30600  1.0000
  Zn  Zn3       1.0  0.84916  0.16498  0.19400  1.0000
  Zn  Zn4       1.0  0.65084  0.83502  0.69400  1.0000
  H   H1        1.0  0.93398  0.48319  0.61641  1.0000
  H   H2        1.0  0.56602  0.51681  0.11641  1.0000
  H   H3        1.0  0.06602  0.51681  0.38359  1.0000
  H   H4        1.0  0.43398  0.48319  0.88359  1.0000
  H   H5        1.0  0.92192  0.48744  0.78962  1.0000
  H   H6        1.0  0.57808  0.51256  0.28962  1.0000
  H   H7        1.0  0.07808  0.51256  0.21038  1.0000
  H   H8        1.0  0.42192  0.48744  0.71038  1.0000
  H   H9        1.0  0.71006  0.33536  0.89790  1.0000
  H   H10       1.0  0.78994  0.66464  0.39790  1.0000
  H   H11       1.0  0.28994  0.66464  0.10210  1.0000
  H   H12       1.0  0.21006  0.33536  0.60210  1.0000
  H   H13       1.0  0.15008  0.91433  0.50829  1.0000
  H   H14       1.0  0.34992  0.08567  0.00829  1.0000
  H   H15       1.0  0.84992  0.08567  0.49171  1.0000
  H   H16       1.0  0.65008  0.91433  0.99171  1.0000
  C   C1        1.0  0.83054  0.64136  0.69085  1.0000
  C   C2        1.0  0.66946  0.35864  0.19085  1.0000
  C   C3        1.0  0.16946  0.35864  0.30915  1.0000
  C   C4        1.0  0.33054  0.64136  0.80915  1.0000
  C   C5        1.0  0.85735  0.48890  0.69879  1.0000
  C   C6        1.0  0.64265  0.51110  0.19879  1.0000
  C   C7        1.0  0.14265  0.51110  0.30121  1.0000
  C   C8        1.0  0.35735  0.48890  0.80121  1.0000
  C   C9        1.0  0.63349  0.31258  0.57005  1.0000
  C   C10       1.0  0.86651  0.68743  0.07005  1.0000
  C   C11       1.0  0.36651  0.68743  0.42994  1.0000
  C   C12       1.0  0.13349  0.31258  0.92995  1.0000
  C   C13       1.0  0.64143  0.28437  0.81011  1.0000
  C   C14       1.0  0.85857  0.71563  0.31011  1.0000
  C   C15       1.0  0.35857  0.71563  0.18989  1.0000
  C   C16       1.0  0.14143  0.28437  0.68989  1.0000
  C   C17       1.0  0.48446  0.18502  0.58214  1.0000
  C   C18       1.0  0.01554  0.81497  0.08214  1.0000
  C   C19       1.0  0.51554  0.81498  0.41785  1.0000
  C   C20       1.0  0.98446  0.18502  0.91785  1.0000
  C   C21       1.0  0.43072  0.11659  0.70420  1.0000
  C   C22       1.0  0.06928  0.88341  0.20420  1.0000
  C   C23       1.0  0.56928  0.88341  0.29580  1.0000
  C   C24       1.0  0.93072  0.11659  0.79580  1.0000
  C   C25       1.0  0.25789  0.99432  0.55517  1.0000
  C   C26       1.0  0.24211  0.00569  0.05517  1.0000
  C   C27       1.0  0.74211  0.00569  0.44483  1.0000
  C   C28       1.0  0.75789  0.99431  0.94483  1.0000
  N   N1        1.0  0.70780  0.35507  0.69497  1.0000
  N   N2        1.0  0.79219  0.64493  0.19497  1.0000
  N   N3        1.0  0.29220  0.64493  0.30503  1.0000
  N   N4        1.0  0.20780  0.35507  0.80503  1.0000
  N   N5        1.0  0.50605  0.16566  0.82071  1.0000
  N   N6        1.0  0.99395  0.83434  0.32071  1.0000
  N   N7        1.0  0.49395  0.83434  0.17929  1.0000
  N   N8        1.0  0.00605  0.16566  0.67929  1.0000
  N   N9        1.0  0.28778  0.99503  0.68511  1.0000
  N   N10       1.0  0.21222  0.00497  0.18511  1.0000
  N   N11       1.0  0.71222  0.00497  0.31489  1.0000
  N   N12       1.0  0.78778  0.99503  0.81489  1.0000
  N   N13       1.0  0.37275  0.10606  0.48869  1.0000
  N   N14       1.0  0.12725  0.89394  0.98869  1.0000
  N   N15       1.0  0.62725  0.89394  0.51131  1.0000
  N   N16       1.0  0.87275  0.10606  0.01131  1.0000
  O   O1        1.0  0.95100  0.76704  0.69751  1.0000
  O   O2        1.0  0.54900  0.23296  0.19751  1.0000
  O   O3        1.0  0.04900  0.23296  0.30249  1.0000
  O   O4        1.0  0.45100  0.76704  0.80249  1.0000
  O   O5        1.0  0.68756  0.63586  0.67386  1.0000
  O   O6        1.0  0.81244  0.36414  0.17386  1.0000
  O   O7        1.0  0.31244  0.36414  0.32614  1.0000
  O   O8        1.0  0.18756  0.63586  0.82614  1.0000
  O   O9        1.0  0.69912  0.38285  0.46962  1.0000
  O   O10       1.0  0.80088  0.61715  0.96962  1.0000
  O   O11       1.0  0.30088  0.61715  0.53038  1.0000
  O   O12       1.0  0.19912  0.38285  0.03038  1.0000
