data_image0
_chemical_formula_structural       Zn2H28C32N4O8
_chemical_formula_sum              "Zn2 H28 C32 N4 O8"
_cell_length_a       8.25183
_cell_length_b       9.40231
_cell_length_c       11.1284
_cell_angle_alpha    90.4349
_cell_angle_beta     109.721
_cell_angle_gamma    103.111

_space_group_name_H-M_alt    "P 1"
_space_group_IT_number       1

loop_
  _space_group_symop_operation_xyz
  'x, y, z'

loop_
  _atom_site_type_symbol
  _atom_site_label
  _atom_site_symmetry_multiplicity
  _atom_site_fract_x
  _atom_site_fract_y
  _atom_site_fract_z
  _atom_site_occupancy
  Zn  Zn1       1.0  0.99504  0.65735  0.78738  1.0000
  Zn  Zn2       1.0  0.00496  0.34265  0.21262  1.0000
  H   H1        1.0  0.85142  0.52908  0.51248  1.0000
  H   H2        1.0  0.14857  0.47092  0.48752  1.0000
  H   H3        1.0  0.15916  0.07949  0.61698  1.0000
  H   H4        1.0  0.84084  0.92051  0.38302  1.0000
  H   H5        1.0  0.81850  0.37823  0.85543  1.0000
  H   H6        1.0  0.18149  0.62177  0.14457  1.0000
  H   H7        1.0  0.71828  0.28040  0.39849  1.0000
  H   H8        1.0  0.28172  0.71961  0.60151  1.0000
  H   H9        1.0  0.62664  0.70723  0.69686  1.0000
  H   H10       1.0  0.37336  0.29277  0.30314  1.0000
  H   H11       1.0  0.43940  0.81851  0.78863  1.0000
  H   H12       1.0  0.56060  0.18149  0.21137  1.0000
  H   H13       1.0  0.87786  0.91096  0.14768  1.0000
  H   H14       1.0  0.12214  0.08902  0.85232  1.0000
  H   H15       1.0  0.67302  0.94862  0.55005  1.0000
  H   H16       1.0  0.32698  0.05139  0.44995  1.0000
  H   H17       1.0  0.59698  0.02363  0.40265  1.0000
  H   H18       1.0  0.40302  0.97639  0.59735  1.0000
  H   H19       1.0  0.44294  0.54474  0.10965  1.0000
  H   H20       1.0  0.55705  0.45525  0.89035  1.0000
  H   H21       1.0  0.04637  0.79520  0.04189  1.0000
  H   H22       1.0  0.95363  0.20480  0.95811  1.0000
  H   H23       1.0  0.61098  0.97378  0.13638  1.0000
  H   H24       1.0  0.38903  0.02622  0.86362  1.0000
  H   H25       1.0  0.41665  0.84814  0.03084  1.0000
  H   H26       1.0  0.58335  0.15186  0.96916  1.0000
  H   H27       1.0  0.67405  0.12347  0.75332  1.0000
  H   H28       1.0  0.32595  0.87653  0.24668  1.0000
  C   C1        1.0  0.28286  0.55522  0.90572  1.0000
  C   C2        1.0  0.71714  0.44477  0.09428  1.0000
  C   C3        1.0  0.81295  0.43550  0.56267  1.0000
  C   C4        1.0  0.18705  0.56450  0.43734  1.0000
  C   C5        1.0  0.99622  0.85824  0.62321  1.0000
  C   C6        1.0  0.00378  0.14176  0.37679  1.0000
  C   C7        1.0  0.04491  0.99245  0.56121  1.0000
  C   C8        1.0  0.95509  0.00755  0.43879  1.0000
  C   C9        1.0  0.79283  0.35156  0.75379  1.0000
  C   C10       1.0  0.20716  0.64844  0.24621  1.0000
  C   C11       1.0  0.73491  0.29587  0.49943  1.0000
  C   C12       1.0  0.26509  0.70414  0.50057  1.0000
  C   C13       1.0  0.64387  0.87413  0.97626  1.0000
  C   C14       1.0  0.35614  0.12586  0.02375  1.0000
  C   C15       1.0  0.67657  0.75432  0.79617  1.0000
  C   C16       1.0  0.32344  0.24568  0.20384  1.0000
  C   C17       1.0  0.57500  0.81778  0.84721  1.0000
  C   C18       1.0  0.42500  0.18222  0.15279  1.0000
  C   C19       1.0  0.81722  0.86709  0.04752  1.0000
  C   C20       1.0  0.18279  0.13291  0.95248  1.0000
  C   C21       1.0  0.59610  0.02612  0.50111  1.0000
  C   C22       1.0  0.40389  0.97388  0.49889  1.0000
  C   C23       1.0  0.43557  0.52424  0.01103  1.0000
  C   C24       1.0  0.56443  0.47575  0.98897  1.0000
  C   C25       1.0  0.91146  0.80298  0.98967  1.0000
  C   C26       1.0  0.08856  0.19701  0.01033  1.0000
  C   C27       1.0  0.68278  0.17844  0.56588  1.0000
  C   C28       1.0  0.31722  0.82157  0.43412  1.0000
  C   C29       1.0  0.53294  0.93618  0.03533  1.0000
  C   C30       1.0  0.46707  0.06382  0.96467  1.0000
  C   C31       1.0  0.71257  0.20976  0.69609  1.0000
  C   C32       1.0  0.28743  0.79024  0.30391  1.0000
  N   N1        1.0  0.84271  0.74635  0.86648  1.0000
  N   N2        1.0  0.15730  0.25365  0.13352  1.0000
  N   N3        1.0  0.84327  0.46314  0.68833  1.0000
  N   N4        1.0  0.15672  0.53686  0.31167  1.0000
  O   O1        1.0  0.17893  0.61580  0.94499  1.0000
  O   O2        1.0  0.82106  0.38420  0.05501  1.0000
  O   O3        1.0  0.12034  0.83575  0.72506  1.0000
  O   O4        1.0  0.87967  0.16425  0.27494  1.0000
  O   O5        1.0  0.25948  0.52809  0.79013  1.0000
  O   O6        1.0  0.74051  0.47190  0.20986  1.0000
  O   O7        1.0  0.84413  0.77340  0.57889  1.0000
  O   O8        1.0  0.15587  0.22661  0.42111  1.0000
