data_image0
_chemical_formula_structural       Ag4H24C36Cl4O8
_chemical_formula_sum              "Ag4 H24 C36 Cl4 O8"
_cell_length_a       5.73621
_cell_length_b       8.34377
_cell_length_c       18.1923
_cell_angle_alpha    89.9999
_cell_angle_beta     89.2288
_cell_angle_gamma    89.9993

_space_group_name_H-M_alt    "P 1"
_space_group_IT_number       1

loop_
  _space_group_symop_operation_xyz
  'x, y, z'

loop_
  _atom_site_type_symbol
  _atom_site_label
  _atom_site_symmetry_multiplicity
  _atom_site_fract_x
  _atom_site_fract_y
  _atom_site_fract_z
  _atom_site_occupancy
  Ag  Ag1       1.0  0.93221  0.86664  0.53920  1.0000
  Ag  Ag2       1.0  0.56778  0.36664  0.46081  1.0000
  Ag  Ag3       1.0  0.06779  0.13336  0.46080  1.0000
  Ag  Ag4       1.0  0.43221  0.63337  0.53919  1.0000
  H   H1        1.0  0.27635  0.86110  0.38631  1.0000
  H   H2        1.0  0.22366  0.36112  0.61368  1.0000
  H   H3        1.0  0.72366  0.13890  0.61368  1.0000
  H   H4        1.0  0.77632  0.63888  0.38632  1.0000
  H   H5        1.0  0.47447  0.14967  0.29922  1.0000
  H   H6        1.0  0.02554  0.64969  0.70078  1.0000
  H   H7        1.0  0.52553  0.85034  0.70078  1.0000
  H   H8        1.0  0.97446  0.35032  0.29922  1.0000
  H   H9        1.0  0.93849  0.87915  0.32100  1.0000
  H   H10       1.0  0.56153  0.37916  0.67901  1.0000
  H   H11       1.0  0.06153  0.12087  0.67901  1.0000
  H   H12       1.0  0.43846  0.62084  0.32099  1.0000
  H   H13       1.0  0.66567  0.82726  0.21916  1.0000
  H   H14       1.0  0.83435  0.32727  0.78084  1.0000
  H   H15       1.0  0.33434  0.17273  0.78084  1.0000
  H   H16       1.0  0.16566  0.67273  0.21916  1.0000
  H   H17       1.0  0.08964  0.11656  0.07356  1.0000
  H   H18       1.0  0.41036  0.61656  0.92644  1.0000
  H   H19       1.0  0.91037  0.88341  0.92644  1.0000
  H   H20       1.0  0.58964  0.38343  0.07356  1.0000
  H   H21       1.0  0.35912  0.17290  0.17629  1.0000
  H   H22       1.0  0.14088  0.67289  0.82371  1.0000
  H   H23       1.0  0.64088  0.82710  0.82370  1.0000
  H   H24       1.0  0.85911  0.32710  0.17629  1.0000
  C   C1        1.0  0.59855  0.98354  0.41556  1.0000
  C   C2        1.0  0.90146  0.48355  0.58444  1.0000
  C   C3        1.0  0.40146  0.01647  0.58443  1.0000
  C   C4        1.0  0.09853  0.51646  0.41557  1.0000
  C   C5        1.0  0.38321  0.96526  0.37213  1.0000
  C   C6        1.0  0.11680  0.46528  0.62787  1.0000
  C   C7        1.0  0.61680  0.03474  0.62787  1.0000
  C   C8        1.0  0.88319  0.53472  0.37213  1.0000
  C   C9        1.0  0.34839  0.05443  0.31091  1.0000
  C   C10       1.0  0.15163  0.55444  0.68909  1.0000
  C   C11       1.0  0.65163  0.94558  0.68908  1.0000
  C   C12       1.0  0.84836  0.44556  0.31092  1.0000
  C   C13       1.0  0.17125  0.02867  0.25573  1.0000
  C   C14       1.0  0.32876  0.52868  0.74427  1.0000
  C   C15       1.0  0.82877  0.97134  0.74427  1.0000
  C   C16       1.0  0.67123  0.47133  0.25573  1.0000
  C   C17       1.0  0.97253  0.93191  0.26710  1.0000
  C   C18       1.0  0.52748  0.43193  0.73290  1.0000
  C   C19       1.0  0.02747  0.06809  0.73290  1.0000
  C   C20       1.0  0.47252  0.56808  0.26710  1.0000
  C   C21       1.0  0.81878  0.90207  0.21027  1.0000
  C   C22       1.0  0.68124  0.40208  0.78973  1.0000
  C   C23       1.0  0.18123  0.09793  0.78973  1.0000
  C   C24       1.0  0.31875  0.59793  0.21027  1.0000
  C   C25       1.0  0.86360  0.96762  0.14069  1.0000
  C   C26       1.0  0.63640  0.46762  0.85931  1.0000
  C   C27       1.0  0.13640  0.03237  0.85931  1.0000
  C   C28       1.0  0.36360  0.53238  0.14069  1.0000
  C   C29       1.0  0.05690  0.06591  0.12792  1.0000
  C   C30       1.0  0.44309  0.56590  0.87208  1.0000
  C   C31       1.0  0.94309  0.93407  0.87208  1.0000
  C   C32       1.0  0.55689  0.43409  0.12792  1.0000
  C   C33       1.0  0.20722  0.09679  0.18567  1.0000
  C   C34       1.0  0.29278  0.59679  0.81433  1.0000
  C   C35       1.0  0.79278  0.90321  0.81432  1.0000
  C   C36       1.0  0.70721  0.40321  0.18567  1.0000
  Cl  Cl1       1.0  0.67492  0.92596  0.06963  1.0000
  Cl  Cl2       1.0  0.82508  0.42596  0.93037  1.0000
  Cl  Cl3       1.0  0.32508  0.07401  0.93038  1.0000
  Cl  Cl4       1.0  0.17492  0.57403  0.06963  1.0000
  O   O1        1.0  0.65388  0.86340  0.45523  1.0000
  O   O2        1.0  0.84613  0.36342  0.54478  1.0000
  O   O3        1.0  0.34613  0.13661  0.54477  1.0000
  O   O4        1.0  0.15386  0.63659  0.45523  1.0000
  O   O5        1.0  0.72023  0.11173  0.40854  1.0000
  O   O6        1.0  0.77977  0.61175  0.59146  1.0000
  O   O7        1.0  0.27979  0.88828  0.59146  1.0000
  O   O8        1.0  0.22023  0.38827  0.40854  1.0000
