data_image0
_chemical_formula_structural       Cd3H30C36N12O14
_chemical_formula_sum              "Cd3 H30 C36 N12 O14"
_cell_length_a       8.88956
_cell_length_b       9.98527
_cell_length_c       13.0752
_cell_angle_alpha    67.5916
_cell_angle_beta     74.8436
_cell_angle_gamma    89.0236

_space_group_name_H-M_alt    "P 1"
_space_group_IT_number       1

loop_
  _space_group_symop_operation_xyz
  'x, y, z'

loop_
  _atom_site_type_symbol
  _atom_site_label
  _atom_site_symmetry_multiplicity
  _atom_site_fract_x
  _atom_site_fract_y
  _atom_site_fract_z
  _atom_site_occupancy
  Cd  Cd1       1.0  0.50000  1.00000  0.50000  1.0000
  Cd  Cd2       1.0  0.63907  0.65934  0.62577  1.0000
  Cd  Cd3       1.0  0.36093  0.34066  0.37423  1.0000
  H   H1        1.0  0.61902  0.11070  0.65922  1.0000
  H   H2        1.0  0.38098  0.88929  0.34079  1.0000
  H   H3        1.0  0.29288  0.80794  0.96096  1.0000
  H   H4        1.0  0.70712  0.19206  0.03904  1.0000
  H   H5        1.0  0.32697  0.26333  0.90200  1.0000
  H   H6        1.0  0.67303  0.73667  0.09800  1.0000
  H   H7        1.0  0.10436  0.21707  0.01642  1.0000
  H   H8        1.0  0.89564  0.78293  0.98358  1.0000
  H   H9        1.0  0.21651  0.77037  0.12991  1.0000
  H   H10       1.0  0.78349  0.22963  0.87009  1.0000
  H   H11       1.0  0.00058  0.70862  0.30735  1.0000
  H   H12       1.0  0.99942  0.29138  0.69265  1.0000
  H   H13       1.0  0.89812  0.15573  0.20005  1.0000
  H   H14       1.0  0.10188  0.84427  0.79996  1.0000
  H   H15       1.0  0.30459  0.68898  0.61206  1.0000
  H   H16       1.0  0.69541  0.31102  0.38794  1.0000
  H   H17       1.0  0.40921  0.69778  0.49108  1.0000
  H   H18       1.0  0.59079  0.30222  0.50892  1.0000
  H   H19       1.0  0.64131  0.41906  0.98021  1.0000
  H   H20       1.0  0.35869  0.58094  0.01979  1.0000
  H   H21       1.0  0.58208  0.46520  0.85407  1.0000
  H   H22       1.0  0.41792  0.53480  0.14593  1.0000
  H   H23       1.0  0.14440  0.52101  0.96042  1.0000
  H   H24       1.0  0.85561  0.47899  0.03958  1.0000
  H   H25       1.0  0.29511  0.57825  0.82964  1.0000
  H   H26       1.0  0.70489  0.42175  0.17036  1.0000
  H   H27       1.0  0.15335  0.65880  0.49234  1.0000
  H   H28       1.0  0.84666  0.34120  0.50766  1.0000
  H   H29       1.0  0.95498  0.67189  0.49490  1.0000
  H   H30       1.0  0.04502  0.32811  0.50510  1.0000
  C   C1        1.0  0.81541  0.51591  0.82860  1.0000
  C   C2        1.0  0.18459  0.48409  0.17140  1.0000
  C   C3        1.0  0.07385  0.54670  0.81858  1.0000
  C   C4        1.0  0.92615  0.45331  0.18142  1.0000
  C   C5        1.0  0.00079  0.60762  0.65244  1.0000
  C   C6        1.0  0.99921  0.39238  0.34756  1.0000
  C   C7        1.0  0.47552  0.20207  0.77256  1.0000
  C   C8        1.0  0.52448  0.79793  0.22744  1.0000
  C   C9        1.0  0.52777  0.08888  0.73892  1.0000
  C   C10       1.0  0.47222  0.91112  0.26108  1.0000
  C   C11       1.0  0.46210  0.94678  0.80796  1.0000
  C   C12       1.0  0.53790  0.05321  0.19204  1.0000
  C   C13       1.0  0.34713  0.91853  0.91133  1.0000
  C   C14       1.0  0.65287  0.08147  0.08867  1.0000
  C   C15       1.0  0.29733  0.03017  0.94903  1.0000
  C   C16       1.0  0.70267  0.96983  0.05097  1.0000
  C   C17       1.0  0.36289  0.17245  0.87762  1.0000
  C   C18       1.0  0.63711  0.82755  0.12238  1.0000
  C   C19       1.0  0.08582  0.10602  0.08089  1.0000
  C   C20       1.0  0.91418  0.89398  0.91911  1.0000
  C   C21       1.0  0.17593  0.99774  0.05880  1.0000
  C   C22       1.0  0.82407  0.00226  0.94120  1.0000
  C   C23       1.0  0.14551  0.85520  0.14338  1.0000
  C   C24       1.0  0.85449  0.14480  0.85662  1.0000
  C   C25       1.0  0.02620  0.82052  0.24450  1.0000
  C   C26       1.0  0.97380  0.17947  0.75550  1.0000
  C   C27       1.0  0.93641  0.92878  0.26552  1.0000
  C   C28       1.0  0.06359  0.07122  0.73448  1.0000
  C   C29       1.0  0.96857  0.07218  0.18326  1.0000
  C   C30       1.0  0.03143  0.92782  0.81674  1.0000
  C   C31       1.0  0.53880  0.35503  0.69626  1.0000
  C   C32       1.0  0.46120  0.64497  0.30374  1.0000
  C   C33       1.0  0.50758  0.82671  0.76845  1.0000
  C   C34       1.0  0.49242  0.17329  0.23155  1.0000
  C   C35       1.0  0.80576  0.89129  0.37263  1.0000
  C   C36       1.0  0.19424  0.10871  0.62737  1.0000
  N   N1        1.0  0.84569  0.57618  0.71145  1.0000
  N   N2        1.0  0.15431  0.42382  0.28855  1.0000
  N   N3        1.0  0.92490  0.50183  0.88481  1.0000
  N   N4        1.0  0.07510  0.49817  0.11519  1.0000
  N   N5        1.0  0.11832  0.59701  0.70205  1.0000
  N   N6        1.0  0.88168  0.40299  0.29795  1.0000
  N   N7        1.0  0.66851  0.46298  0.89266  1.0000
  N   N8        1.0  0.33149  0.53702  0.10734  1.0000
  N   N9        1.0  0.18248  0.53778  0.87413  1.0000
  N   N10       1.0  0.81752  0.46222  0.12587  1.0000
  N   N11       1.0  0.03941  0.65038  0.53767  1.0000
  N   N12       1.0  0.96059  0.34962  0.46233  1.0000
  O   O1        1.0  0.40708  0.73699  0.55148  1.0000
  O   O2        1.0  0.59292  0.26301  0.44852  1.0000
  O   O3        1.0  0.62728  0.38645  0.59536  1.0000
  O   O4        1.0  0.37272  0.61355  0.40464  1.0000
  O   O5        1.0  0.49818  0.45078  0.73946  1.0000
  O   O6        1.0  0.50182  0.54922  0.26054  1.0000
  O   O7        1.0  0.46643  0.69648  0.83537  1.0000
  O   O8        1.0  0.53357  0.30352  0.16463  1.0000
  O   O9        1.0  0.59049  0.86445  0.66145  1.0000
  O   O10       1.0  0.40951  0.13555  0.33855  1.0000
  O   O11       1.0  0.78379  0.75821  0.44419  1.0000
  O   O12       1.0  0.21621  0.24179  0.55581  1.0000
  O   O13       1.0  0.72539  0.99378  0.38434  1.0000
  O   O14       1.0  0.27461  0.00622  0.61566  1.0000
