data_image0
_chemical_formula_structural       Cd2H28C32N24O4
_chemical_formula_sum              "Cd2 H28 C32 N24 O4"
_cell_length_a       7.41115
_cell_length_b       10.1886
_cell_length_c       11.5015
_cell_angle_alpha    90.0001
_cell_angle_beta     89.9999
_cell_angle_gamma    92.6993

_space_group_name_H-M_alt    "P 1"
_space_group_IT_number       1

loop_
  _space_group_symop_operation_xyz
  'x, y, z'

loop_
  _atom_site_type_symbol
  _atom_site_label
  _atom_site_symmetry_multiplicity
  _atom_site_fract_x
  _atom_site_fract_y
  _atom_site_fract_z
  _atom_site_occupancy
  Cd  Cd1       1.0  0.00000  1.00000  0.00000  1.0000
  Cd  Cd2       1.0  0.50000  0.00000  0.50000  1.0000
  H   H1        1.0  0.08849  0.33778  0.99817  1.0000
  H   H2        1.0  0.41150  0.66222  0.49817  1.0000
  H   H3        1.0  0.91150  0.66222  0.00183  1.0000
  H   H4        1.0  0.58849  0.33778  0.50183  1.0000
  H   H5        1.0  0.22069  0.55421  0.92587  1.0000
  H   H6        1.0  0.27931  0.44579  0.42587  1.0000
  H   H7        1.0  0.77931  0.44579  0.07413  1.0000
  H   H8        1.0  0.72069  0.55421  0.57413  1.0000
  H   H9        1.0  0.24232  0.60212  0.71696  1.0000
  H   H10       1.0  0.25767  0.39788  0.21697  1.0000
  H   H11       1.0  0.75768  0.39788  0.28304  1.0000
  H   H12       1.0  0.74232  0.60212  0.78303  1.0000
  H   H13       1.0  0.12493  0.43917  0.56956  1.0000
  H   H14       1.0  0.37507  0.56082  0.06956  1.0000
  H   H15       1.0  0.87507  0.56082  0.43044  1.0000
  H   H16       1.0  0.62493  0.43918  0.93044  1.0000
  H   H17       1.0  0.85188  0.00274  0.71255  1.0000
  H   H18       1.0  0.64812  0.99726  0.21254  1.0000
  H   H19       1.0  0.14812  0.99726  0.28746  1.0000
  H   H20       1.0  0.35188  0.00274  0.78746  1.0000
  H   H21       1.0  0.78853  0.21060  0.09083  1.0000
  H   H22       1.0  0.71147  0.78940  0.59083  1.0000
  H   H23       1.0  0.21147  0.78939  0.90917  1.0000
  H   H24       1.0  0.28853  0.21061  0.40917  1.0000
  H   H25       1.0  0.94202  0.19599  0.18956  1.0000
  H   H26       1.0  0.55799  0.80401  0.68956  1.0000
  H   H27       1.0  0.05799  0.80401  0.81044  1.0000
  H   H28       1.0  0.44201  0.19599  0.31044  1.0000
  C   C1        1.0  0.04066  0.26639  0.82313  1.0000
  C   C2        1.0  0.45934  0.73361  0.32313  1.0000
  C   C3        1.0  0.95934  0.73361  0.17687  1.0000
  C   C4        1.0  0.54066  0.26639  0.67687  1.0000
  C   C5        1.0  0.10131  0.35922  0.90576  1.0000
  C   C6        1.0  0.39869  0.64078  0.40577  1.0000
  C   C7        1.0  0.89869  0.64078  0.09424  1.0000
  C   C8        1.0  0.60131  0.35922  0.59423  1.0000
  C   C9        1.0  0.17279  0.47911  0.86456  1.0000
  C   C10       1.0  0.32721  0.52089  0.36457  1.0000
  C   C11       1.0  0.82721  0.52089  0.13544  1.0000
  C   C12       1.0  0.67279  0.47911  0.63543  1.0000
  C   C13       1.0  0.18370  0.50735  0.74502  1.0000
  C   C14       1.0  0.31630  0.49265  0.24502  1.0000
  C   C15       1.0  0.81631  0.49265  0.25498  1.0000
  C   C16       1.0  0.68370  0.50736  0.75498  1.0000
  C   C17       1.0  0.12121  0.41692  0.66189  1.0000
  C   C18       1.0  0.37879  0.58308  0.16189  1.0000
  C   C19       1.0  0.87879  0.58308  0.33811  1.0000
  C   C20       1.0  0.62121  0.41692  0.83811  1.0000
  C   C21       1.0  0.05018  0.29677  0.70325  1.0000
  C   C22       1.0  0.44982  0.70323  0.20325  1.0000
  C   C23       1.0  0.94982  0.70323  0.29675  1.0000
  C   C24       1.0  0.55018  0.29677  0.79675  1.0000
  C   C25       1.0  0.91883  0.09711  0.73166  1.0000
  C   C26       1.0  0.58116  0.90289  0.23166  1.0000
  C   C27       1.0  0.08116  0.90290  0.26834  1.0000
  C   C28       1.0  0.41884  0.09711  0.76834  1.0000
  C   C29       1.0  0.93944  0.17148  0.52810  1.0000
  C   C30       1.0  0.56055  0.82852  0.02810  1.0000
  C   C31       1.0  0.06055  0.82852  0.47190  1.0000
  C   C32       1.0  0.43945  0.17148  0.97190  1.0000
  N   N1        1.0  0.96021  0.14008  0.83704  1.0000
  N   N2        1.0  0.53979  0.85992  0.33704  1.0000
  N   N3        1.0  0.03979  0.85992  0.16296  1.0000
  N   N4        1.0  0.46021  0.14008  0.66296  1.0000
  N   N5        1.0  0.97074  0.18645  0.64686  1.0000
  N   N6        1.0  0.52926  0.81355  0.14686  1.0000
  N   N7        1.0  0.02926  0.81355  0.35314  1.0000
  N   N8        1.0  0.47074  0.18645  0.85314  1.0000
  N   N9        1.0  0.04322  0.22818  0.44465  1.0000
  N   N10       1.0  0.45678  0.77182  0.94465  1.0000
  N   N11       1.0  0.95678  0.77182  0.55535  1.0000
  N   N12       1.0  0.54322  0.22818  0.05535  1.0000
  N   N13       1.0  0.96004  0.19018  0.34449  1.0000
  N   N14       1.0  0.53996  0.80982  0.84449  1.0000
  N   N15       1.0  0.03996  0.80982  0.65551  1.0000
  N   N16       1.0  0.46004  0.19018  0.15551  1.0000
  N   N17       1.0  0.81737  0.11345  0.36683  1.0000
  N   N18       1.0  0.68263  0.88655  0.86683  1.0000
  N   N19       1.0  0.18263  0.88655  0.63317  1.0000
  N   N20       1.0  0.31737  0.11345  0.13317  1.0000
  N   N21       1.0  0.79938  0.09954  0.48284  1.0000
  N   N22       1.0  0.70061  0.90045  0.98284  1.0000
  N   N23       1.0  0.20061  0.90046  0.51716  1.0000
  N   N24       1.0  0.29939  0.09955  0.01716  1.0000
  O   O1        1.0  0.91311  0.18343  0.10550  1.0000
  O   O2        1.0  0.58689  0.81657  0.60550  1.0000
  O   O3        1.0  0.08689  0.81657  0.89450  1.0000
  O   O4        1.0  0.41311  0.18343  0.39450  1.0000
