data_image0
_chemical_formula_structural       Rb4Na2H10C12O14
_chemical_formula_sum              "Rb4 Na2 H10 C12 O14"
_cell_length_a       5.61336
_cell_length_b       7.85565
_cell_length_c       11.5975
_cell_angle_alpha    82.557
_cell_angle_beta     89.4272
_cell_angle_gamma    84.0772

_space_group_name_H-M_alt    "P 1"
_space_group_IT_number       1

loop_
  _space_group_symop_operation_xyz
  'x, y, z'

loop_
  _atom_site_type_symbol
  _atom_site_label
  _atom_site_symmetry_multiplicity
  _atom_site_fract_x
  _atom_site_fract_y
  _atom_site_fract_z
  _atom_site_occupancy
  Rb  Rb1       1.0  0.74007  0.46287  0.13171  1.0000
  Rb  Rb2       1.0  0.25995  0.53712  0.86829  1.0000
  Rb  Rb3       1.0  0.75484  0.64001  0.41095  1.0000
  Rb  Rb4       1.0  0.24513  0.35999  0.58904  1.0000
  Na  Na1       1.0  0.76186  0.12823  0.40053  1.0000
  Na  Na2       1.0  0.23815  0.87177  0.59947  1.0000
  H   H1        1.0  0.23910  0.00918  0.04214  1.0000
  H   H2        1.0  0.76090  0.99083  0.95786  1.0000
  H   H3        1.0  0.45628  0.89187  0.13978  1.0000
  H   H4        1.0  0.54373  0.10814  0.86022  1.0000
  H   H5        1.0  0.22523  0.29542  0.12498  1.0000
  H   H6        1.0  0.77477  0.70458  0.87501  1.0000
  H   H7        1.0  0.48849  0.17905  0.18895  1.0000
  H   H8        1.0  0.51150  0.82096  0.81105  1.0000
  H   H9        1.0  0.86510  0.97732  0.19189  1.0000
  H   H10       1.0  0.13491  0.02268  0.80811  1.0000
  C   C1        1.0  0.12933  0.77242  0.12569  1.0000
  C   C2        1.0  0.87067  0.22757  0.87431  1.0000
  C   C3        1.0  0.26395  0.93200  0.12853  1.0000
  C   C4        1.0  0.73605  0.06800  0.87147  1.0000
  C   C5        1.0  0.17380  0.04865  0.22102  1.0000
  C   C6        1.0  0.82621  0.95135  0.77898  1.0000
  C   C7        1.0  0.29811  0.21514  0.20412  1.0000
  C   C8        1.0  0.70188  0.78486  0.79588  1.0000
  C   C9        1.0  0.27126  0.32164  0.30667  1.0000
  C   C10       1.0  0.72873  0.67837  0.69334  1.0000
  C   C11       1.0  0.24312  0.95140  0.34386  1.0000
  C   C12       1.0  0.75689  0.04860  0.65614  1.0000
  O   O1        1.0  0.90744  0.78402  0.15507  1.0000
  O   O2        1.0  0.09256  0.21597  0.84493  1.0000
  O   O3        1.0  0.23973  0.63949  0.09118  1.0000
  O   O4        1.0  0.76028  0.36050  0.90883  1.0000
  O   O5        1.0  0.46105  0.37143  0.34568  1.0000
  O   O6        1.0  0.53894  0.62858  0.65432  1.0000
  O   O7        1.0  0.06265  0.35259  0.34772  1.0000
  O   O8        1.0  0.93734  0.64740  0.65229  1.0000
  O   O9        1.0  0.08118  0.88707  0.40740  1.0000
  O   O10       1.0  0.91883  0.11292  0.59259  1.0000
  O   O11       1.0  0.46193  0.94335  0.37257  1.0000
  O   O12       1.0  0.53808  0.05666  0.62744  1.0000
  O   O13       1.0  0.91977  0.09071  0.20838  1.0000
  O   O14       1.0  0.08024  0.90929  0.79162  1.0000
