data_image0
_chemical_formula_structural       Cd2H32C42N2O14
_chemical_formula_sum              "Cd2 H32 C42 N2 O14"
_cell_length_a       9.19218
_cell_length_b       9.92867
_cell_length_c       12.1631
_cell_angle_alpha    108.196
_cell_angle_beta     93.9803
_cell_angle_gamma    102.806

_space_group_name_H-M_alt    "P 1"
_space_group_IT_number       1

loop_
  _space_group_symop_operation_xyz
  'x, y, z'

loop_
  _atom_site_type_symbol
  _atom_site_label
  _atom_site_symmetry_multiplicity
  _atom_site_fract_x
  _atom_site_fract_y
  _atom_site_fract_z
  _atom_site_occupancy
  Cd  Cd1       1.0  0.51082  0.50110  0.25987  1.0000
  Cd  Cd2       1.0  0.48917  0.49890  0.74013  1.0000
  H   H1        1.0  0.50071  0.25976  0.29606  1.0000
  H   H2        1.0  0.49929  0.74024  0.70394  1.0000
  H   H3        1.0  0.58491  0.35663  0.42813  1.0000
  H   H4        1.0  0.41509  0.64338  0.57187  1.0000
  H   H5        1.0  0.73451  0.37259  0.90703  1.0000
  H   H6        1.0  0.26548  0.62741  0.09298  1.0000
  H   H7        1.0  0.05663  0.65267  0.21105  1.0000
  H   H8        1.0  0.94337  0.34732  0.78895  1.0000
  H   H9        1.0  0.52437  0.22879  0.96643  1.0000
  H   H10       1.0  0.47563  0.77122  0.03357  1.0000
  H   H11       1.0  0.13127  0.77268  0.76140  1.0000
  H   H12       1.0  0.86873  0.22732  0.23860  1.0000
  H   H13       1.0  0.25013  0.77348  0.56555  1.0000
  H   H14       1.0  0.74987  0.22652  0.43445  1.0000
  H   H15       1.0  0.07770  0.25890  0.00617  1.0000
  H   H16       1.0  0.92231  0.74110  0.99383  1.0000
  H   H17       1.0  0.07822  0.08799  0.71209  1.0000
  H   H18       1.0  0.92178  0.91200  0.28792  1.0000
  H   H19       1.0  0.01954  0.89338  0.67049  1.0000
  H   H20       1.0  0.98046  0.10661  0.32951  1.0000
  H   H21       1.0  0.15225  0.91567  0.12962  1.0000
  H   H22       1.0  0.84775  0.08433  0.87037  1.0000
  H   H23       1.0  0.32729  0.20982  0.80819  1.0000
  H   H24       1.0  0.67271  0.79018  0.19181  1.0000
  H   H25       1.0  0.15601  0.18074  0.56798  1.0000
  H   H26       1.0  0.84398  0.81925  0.43202  1.0000
  H   H27       1.0  0.32295  0.76872  0.91288  1.0000
  H   H28       1.0  0.67706  0.23129  0.08712  1.0000
  H   H29       1.0  0.37970  0.95238  0.29673  1.0000
  H   H30       1.0  0.62030  0.04763  0.70328  1.0000
  H   H31       1.0  0.27496  0.16289  0.38618  1.0000
  H   H32       1.0  0.72504  0.83711  0.61383  1.0000
  C   C1        1.0  0.88283  0.51350  0.06715  1.0000
  C   C2        1.0  0.11716  0.48649  0.93286  1.0000
  C   C3        1.0  0.44236  0.99879  0.95426  1.0000
  C   C4        1.0  0.55765  0.00121  0.04575  1.0000
  C   C5        1.0  0.85077  0.42691  0.94815  1.0000
  C   C6        1.0  0.14922  0.57308  0.05185  1.0000
  C   C7        1.0  0.19044  0.97614  0.57564  1.0000
  C   C8        1.0  0.80956  0.02386  0.42436  1.0000
  C   C9        1.0  0.75796  0.52793  0.13920  1.0000
  C   C10       1.0  0.24204  0.47206  0.86080  1.0000
  C   C11       1.0  0.03277  0.58634  0.11845  1.0000
  C   C12       1.0  0.96723  0.41365  0.88156  1.0000
  C   C13       1.0  0.32210  0.85003  0.42618  1.0000
  C   C14       1.0  0.67790  0.14997  0.57382  1.0000
  C   C15       1.0  0.44220  0.12382  0.92326  1.0000
  C   C16       1.0  0.55781  0.87618  0.07674  1.0000
  C   C17       1.0  0.12809  0.09787  0.07627  1.0000
  C   C18       1.0  0.87192  0.90213  0.92372  1.0000
  C   C19       1.0  0.39274  0.72711  0.37435  1.0000
  C   C20       1.0  0.60726  0.27289  0.62565  1.0000
  C   C21       1.0  0.22130  0.86951  0.80965  1.0000
  C   C22       1.0  0.77870  0.13049  0.19035  1.0000
  C   C23       1.0  0.25270  0.85864  0.52616  1.0000
  C   C24       1.0  0.74730  0.14136  0.47384  1.0000
  C   C25       1.0  0.04277  0.14528  0.00274  1.0000
  C   C26       1.0  0.95723  0.85472  0.99725  1.0000
  C   C27       1.0  0.11635  0.98709  0.68396  1.0000
  C   C28       1.0  0.88365  0.01290  0.31604  1.0000
  C   C29       1.0  0.08430  0.95181  0.07295  1.0000
  C   C30       1.0  0.91571  0.04819  0.92704  1.0000
  C   C31       1.0  0.26855  0.20145  0.15504  1.0000
  C   C32       1.0  0.73145  0.79855  0.84496  1.0000
  C   C33       1.0  0.33301  0.11733  0.83679  1.0000
  C   C34       1.0  0.66700  0.88266  0.16321  1.0000
  C   C35       1.0  0.19971  0.08676  0.52607  1.0000
  C   C36       1.0  0.80029  0.91324  0.47393  1.0000
  C   C37       1.0  0.32831  0.87060  0.89532  1.0000
  C   C38       1.0  0.67170  0.12940  0.10469  1.0000
  C   C39       1.0  0.32703  0.95929  0.37505  1.0000
  C   C40       1.0  0.67297  0.04071  0.62495  1.0000
  C   C41       1.0  0.26699  0.07737  0.42550  1.0000
  C   C42       1.0  0.73301  0.92264  0.57450  1.0000
  N   N1        1.0  0.22477  0.99141  0.78158  1.0000
  N   N2        1.0  0.77523  0.00859  0.21842  1.0000
  O   O1        1.0  0.43446  0.71241  0.27408  1.0000
  O   O2        1.0  0.56553  0.28759  0.72591  1.0000
  O   O3        1.0  0.63017  0.43250  0.09819  1.0000
  O   O4        1.0  0.36982  0.56749  0.90180  1.0000
  O   O5        1.0  0.41033  0.63942  0.42923  1.0000
  O   O6        1.0  0.58967  0.36058  0.57077  1.0000
  O   O7        1.0  0.78002  0.62981  0.23749  1.0000
  O   O8        1.0  0.21997  0.37019  0.76250  1.0000
  O   O9        1.0  0.35733  0.14620  0.20160  1.0000
  O   O10       1.0  0.64267  0.85379  0.79839  1.0000
  O   O11       1.0  0.28819  0.33720  0.16771  1.0000
  O   O12       1.0  0.71181  0.66280  0.83229  1.0000
  O   O13       1.0  0.58741  0.34583  0.34393  1.0000
  O   O14       1.0  0.41259  0.65417  0.65607  1.0000
