data_image0
_chemical_formula_structural       Zn4P4H40C20N4O24
_chemical_formula_sum              "Zn4 P4 H40 C20 N4 O24"
_cell_length_a       8.79934
_cell_length_b       10.3879
_cell_length_c       10.786
_cell_angle_alpha    97.5754
_cell_angle_beta     90.003
_cell_angle_gamma    115.04

_space_group_name_H-M_alt    "P 1"
_space_group_IT_number       1

loop_
  _space_group_symop_operation_xyz
  'x, y, z'

loop_
  _atom_site_type_symbol
  _atom_site_label
  _atom_site_symmetry_multiplicity
  _atom_site_fract_x
  _atom_site_fract_y
  _atom_site_fract_z
  _atom_site_occupancy
  Zn  Zn1       1.0  0.13995  0.64913  0.36647  1.0000
  Zn  Zn2       1.0  0.49085  0.35078  0.13355  1.0000
  Zn  Zn3       1.0  0.86005  0.35087  0.63354  1.0000
  Zn  Zn4       1.0  0.50915  0.64922  0.86645  1.0000
  P   P1        1.0  0.77068  0.38187  0.35417  1.0000
  P   P2        1.0  0.38870  0.61808  0.14581  1.0000
  P   P3        1.0  0.22933  0.61813  0.64583  1.0000
  P   P4        1.0  0.61130  0.38191  0.85419  1.0000
  H   H1        1.0  0.77554  0.17211  0.35327  1.0000
  H   H2        1.0  0.60346  0.82774  0.14669  1.0000
  H   H3        1.0  0.22446  0.82789  0.64673  1.0000
  H   H4        1.0  0.39654  0.17226  0.85332  1.0000
  H   H5        1.0  0.40773  0.18200  0.61533  1.0000
  H   H6        1.0  0.22559  0.81815  0.88474  1.0000
  H   H7        1.0  0.59227  0.81800  0.38467  1.0000
  H   H8        1.0  0.77441  0.18185  0.11525  1.0000
  H   H9        1.0  0.53099  0.28566  0.51439  1.0000
  H   H10       1.0  0.24534  0.71436  0.98555  1.0000
  H   H11       1.0  0.46902  0.71434  0.48561  1.0000
  H   H12       1.0  0.75466  0.28564  0.01445  1.0000
  H   H13       1.0  0.39748  0.11861  0.35290  1.0000
  H   H14       1.0  0.27902  0.88133  0.14713  1.0000
  H   H15       1.0  0.60252  0.88140  0.64710  1.0000
  H   H16       1.0  0.72098  0.11867  0.85287  1.0000
  H   H17       1.0  0.13804  0.10994  0.28618  1.0000
  H   H18       1.0  0.02843  0.89009  0.21412  1.0000
  H   H19       1.0  0.86196  0.89006  0.71382  1.0000
  H   H20       1.0  0.97158  0.10991  0.78588  1.0000
  H   H21       1.0  0.05003  0.07338  0.43332  1.0000
  H   H22       1.0  0.97677  0.92674  0.06706  1.0000
  H   H23       1.0  0.94997  0.92662  0.56668  1.0000
  H   H24       1.0  0.02323  0.07326  0.93294  1.0000
  H   H25       1.0  0.30098  0.36240  0.36552  1.0000
  H   H26       1.0  0.93880  0.63758  0.13461  1.0000
  H   H27       1.0  0.69902  0.63760  0.63448  1.0000
  H   H28       1.0  0.06120  0.36241  0.86539  1.0000
  H   H29       1.0  0.11361  0.32560  0.44308  1.0000
  H   H30       1.0  0.78821  0.67453  0.05720  1.0000
  H   H31       1.0  0.88640  0.67440  0.55692  1.0000
  H   H32       1.0  0.21179  0.32547  0.94280  1.0000
  H   H33       1.0  0.23228  0.28725  0.63274  1.0000
  H   H34       1.0  0.94494  0.71298  0.86750  1.0000
  H   H35       1.0  0.76772  0.71275  0.36726  1.0000
  H   H36       1.0  0.05506  0.28701  0.13249  1.0000
  H   H37       1.0  0.40885  0.43257  0.58763  1.0000
  H   H38       1.0  0.97630  0.56756  0.91239  1.0000
  H   H39       1.0  0.59116  0.56744  0.41238  1.0000
  H   H40       1.0  0.02370  0.43243  0.08761  1.0000
  C   C1        1.0  0.26118  0.96194  0.47199  1.0000
  C   C2        1.0  0.29916  0.03801  0.02810  1.0000
  C   C3        1.0  0.73882  0.03807  0.52802  1.0000
  C   C4        1.0  0.70085  0.96198  0.97189  1.0000
  C   C5        1.0  0.31197  0.10797  0.42904  1.0000
  C   C6        1.0  0.20404  0.89202  0.07108  1.0000
  C   C7        1.0  0.68802  0.89204  0.57097  1.0000
  C   C8        1.0  0.79596  0.10797  0.92891  1.0000
  C   C9        1.0  0.16354  0.13747  0.38767  1.0000
  C   C10       1.0  0.02628  0.86262  0.11261  1.0000
  C   C11       1.0  0.83646  0.86254  0.61233  1.0000
  C   C12       1.0  0.97372  0.13738  0.88738  1.0000
  C   C13       1.0  0.21983  0.29754  0.43233  1.0000
  C   C14       1.0  0.92249  0.70257  0.06791  1.0000
  C   C15       1.0  0.78017  0.70247  0.56767  1.0000
  C   C16       1.0  0.07751  0.29743  0.93209  1.0000
  C   C17       1.0  0.31602  0.32238  0.55679  1.0000
  C   C18       1.0  0.99367  0.67775  0.94336  1.0000
  C   C19       1.0  0.68398  0.67762  0.44321  1.0000
  C   C20       1.0  0.00633  0.32225  0.05664  1.0000
  N   N1        1.0  0.40537  0.22650  0.53513  1.0000
  N   N2        1.0  0.17884  0.77356  0.96492  1.0000
  N   N3        1.0  0.59463  0.77350  0.46487  1.0000
  N   N4        1.0  0.82116  0.22644  0.03508  1.0000
  O   O1        1.0  0.90599  0.52404  0.32532  1.0000
  O   O2        1.0  0.38183  0.47584  0.17455  1.0000
  O   O3        1.0  0.09401  0.47596  0.67468  1.0000
  O   O4        1.0  0.61817  0.52416  0.82545  1.0000
  O   O5        1.0  0.60104  0.34423  0.28713  1.0000
  O   O6        1.0  0.25676  0.65577  0.21290  1.0000
  O   O7        1.0  0.39897  0.65577  0.71286  1.0000
  O   O8        1.0  0.74324  0.34423  0.78710  1.0000
  O   O9        1.0  0.73925  0.37929  0.49611  1.0000
  O   O10       1.0  0.35996  0.62087  0.00389  1.0000
  O   O11       1.0  0.26075  0.62071  0.50389  1.0000
  O   O12       1.0  0.64004  0.37913  0.99611  1.0000
  O   O13       1.0  0.83415  0.26129  0.30901  1.0000
  O   O14       1.0  0.57273  0.73860  0.19103  1.0000
  O   O15       1.0  0.16585  0.73871  0.69099  1.0000
  O   O16       1.0  0.42727  0.26140  0.80898  1.0000
  O   O17       1.0  0.17082  0.85446  0.39122  1.0000
  O   O18       1.0  0.31647  0.14548  0.10896  1.0000
  O   O19       1.0  0.82919  0.14554  0.60878  1.0000
  O   O20       1.0  0.68353  0.85452  0.89104  1.0000
  O   O21       1.0  0.30972  0.96016  0.58178  1.0000
  O   O22       1.0  0.34919  0.03979  0.91822  1.0000
  O   O23       1.0  0.69028  0.03985  0.41823  1.0000
  O   O24       1.0  0.65081  0.96021  0.08178  1.0000
