data_image0
_chemical_formula_structural       Ba4H16C36N8O16
_chemical_formula_sum              "Ba4 H16 C36 N8 O16"
_cell_length_a       6.90957
_cell_length_b       9.46319
_cell_length_c       14.5758
_cell_angle_alpha    86.2227
_cell_angle_beta     80.4144
_cell_angle_gamma    88.2796

_space_group_name_H-M_alt    "P 1"
_space_group_IT_number       1

loop_
  _space_group_symop_operation_xyz
  'x, y, z'

loop_
  _atom_site_type_symbol
  _atom_site_label
  _atom_site_symmetry_multiplicity
  _atom_site_fract_x
  _atom_site_fract_y
  _atom_site_fract_z
  _atom_site_occupancy
  Ba  Ba1       1.0  0.70866  0.92367  0.08406  1.0000
  Ba  Ba2       1.0  0.29135  0.07633  0.91594  1.0000
  Ba  Ba3       1.0  0.20687  0.59556  0.05606  1.0000
  Ba  Ba4       1.0  0.79314  0.40444  0.94394  1.0000
  H   H1        1.0  0.74346  0.15442  0.69475  1.0000
  H   H2        1.0  0.25654  0.84559  0.30525  1.0000
  H   H3        1.0  0.94911  0.64024  0.72185  1.0000
  H   H4        1.0  0.05088  0.35976  0.27815  1.0000
  H   H5        1.0  0.70832  0.08609  0.51186  1.0000
  H   H6        1.0  0.29168  0.91391  0.48814  1.0000
  H   H7        1.0  0.74707  0.85018  0.42414  1.0000
  H   H8        1.0  0.25292  0.14982  0.57586  1.0000
  H   H9        1.0  0.75174  0.67154  0.31639  1.0000
  H   H10       1.0  0.24827  0.32846  0.68361  1.0000
  H   H11       1.0  0.57433  0.15869  0.32343  1.0000
  H   H12       1.0  0.42567  0.84131  0.67657  1.0000
  H   H13       1.0  0.79677  0.58735  0.51177  1.0000
  H   H14       1.0  0.20323  0.41265  0.48823  1.0000
  H   H15       1.0  0.75722  0.35378  0.60872  1.0000
  H   H16       1.0  0.24278  0.64622  0.39128  1.0000
  C   C1        1.0  0.55049  0.29732  0.15951  1.0000
  C   C2        1.0  0.44951  0.70268  0.84049  1.0000
  C   C3        1.0  0.84371  0.98224  0.78057  1.0000
  C   C4        1.0  0.15629  0.01776  0.21943  1.0000
  C   C5        1.0  0.78973  0.04341  0.69885  1.0000
  C   C6        1.0  0.21027  0.95659  0.30114  1.0000
  C   C7        1.0  0.79310  0.95611  0.62540  1.0000
  C   C8        1.0  0.20690  0.04389  0.37460  1.0000
  C   C9        1.0  0.84865  0.81052  0.63201  1.0000
  C   C10       1.0  0.15135  0.18948  0.36799  1.0000
  C   C11       1.0  0.90280  0.75087  0.71458  1.0000
  C   C12       1.0  0.09720  0.24913  0.28542  1.0000
  C   C13       1.0  0.90143  0.83733  0.78904  1.0000
  C   C14       1.0  0.09857  0.16267  0.21096  1.0000
  C   C15       1.0  0.77460  0.85886  0.49472  1.0000
  C   C16       1.0  0.22540  0.14113  0.50528  1.0000
  C   C17       1.0  0.70964  0.56087  0.31977  1.0000
  C   C18       1.0  0.29036  0.43912  0.68023  1.0000
  C   C19       1.0  0.64990  0.50384  0.24323  1.0000
  C   C20       1.0  0.35010  0.49616  0.75677  1.0000
  C   C21       1.0  0.60153  0.35907  0.24469  1.0000
  C   C22       1.0  0.39847  0.64094  0.75531  1.0000
  C   C23       1.0  0.60930  0.26991  0.32428  1.0000
  C   C24       1.0  0.39070  0.73009  0.67573  1.0000
  C   C25       1.0  0.66041  0.32659  0.40250  1.0000
  C   C26       1.0  0.33960  0.67341  0.59750  1.0000
  C   C27       1.0  0.71272  0.47107  0.39952  1.0000
  C   C28       1.0  0.28729  0.52893  0.60048  1.0000
  C   C29       1.0  0.73222  0.36545  0.53695  1.0000
  C   C30       1.0  0.26778  0.63455  0.46305  1.0000
  C   C31       1.0  0.63612  0.60406  0.15993  1.0000
  C   C32       1.0  0.36388  0.39594  0.84006  1.0000
  C   C33       1.0  0.83285  0.08162  0.85732  1.0000
  C   C34       1.0  0.16716  0.91839  0.14268  1.0000
  C   C35       1.0  0.96615  0.77822  0.87727  1.0000
  C   C36       1.0  0.03385  0.22178  0.12273  1.0000
  N   N1        1.0  0.74670  0.98305  0.53763  1.0000
  N   N2        1.0  0.25329  0.01695  0.46237  1.0000
  N   N3        1.0  0.83468  0.75259  0.54786  1.0000
  N   N4        1.0  0.16531  0.24741  0.45214  1.0000
  N   N5        1.0  0.75806  0.49149  0.48639  1.0000
  N   N6        1.0  0.24195  0.50851  0.51361  1.0000
  N   N7        1.0  0.67395  0.26341  0.49016  1.0000
  N   N8        1.0  0.32605  0.73659  0.50985  1.0000
  O   O1        1.0  0.48125  0.68257  0.16492  1.0000
  O   O2        1.0  0.51875  0.31743  0.83508  1.0000
  O   O3        1.0  0.78086  0.61773  0.09350  1.0000
  O   O4        1.0  0.21914  0.38227  0.90650  1.0000
  O   O5        1.0  0.96261  0.17690  0.84613  1.0000
  O   O6        1.0  0.03740  0.82310  0.15387  1.0000
  O   O7        1.0  0.68795  0.07643  0.92434  1.0000
  O   O8        1.0  0.31205  0.92357  0.07565  1.0000
  O   O9        1.0  0.98825  0.64546  0.89106  1.0000
  O   O10       1.0  0.01174  0.35455  0.10894  1.0000
  O   O11       1.0  0.49773  0.38293  0.09527  1.0000
  O   O12       1.0  0.50228  0.61707  0.90473  1.0000
  O   O13       1.0  0.99994  0.86633  0.93601  1.0000
  O   O14       1.0  0.00006  0.13367  0.06398  1.0000
  O   O15       1.0  0.56809  0.16475  0.15388  1.0000
  O   O16       1.0  0.43192  0.83525  0.84612  1.0000
