data_image0
_chemical_formula_structural       Cu2H14C32N18
_chemical_formula_sum              "Cu2 H14 C32 N18"
_cell_length_a       7.48269
_cell_length_b       10.9152
_cell_length_c       11.3601
_cell_angle_alpha    115.51
_cell_angle_beta     88.2737
_cell_angle_gamma    110.433

_space_group_name_H-M_alt    "P 1"
_space_group_IT_number       1

loop_
  _space_group_symop_operation_xyz
  'x, y, z'

loop_
  _atom_site_type_symbol
  _atom_site_label
  _atom_site_symmetry_multiplicity
  _atom_site_fract_x
  _atom_site_fract_y
  _atom_site_fract_z
  _atom_site_occupancy
  Cu  Cu1       1.0  0.43418  0.34956  0.74238  1.0000
  Cu  Cu2       1.0  0.56582  0.65044  0.25762  1.0000
  H   H1        1.0  0.43204  0.05651  0.72667  1.0000
  H   H2        1.0  0.56796  0.94349  0.27333  1.0000
  H   H3        1.0  0.31709  0.56826  0.63277  1.0000
  H   H4        1.0  0.68292  0.43175  0.36723  1.0000
  H   H5        1.0  0.09312  0.92930  0.30026  1.0000
  H   H6        1.0  0.90688  0.07070  0.69974  1.0000
  H   H7        1.0  0.11305  0.41559  0.37669  1.0000
  H   H8        1.0  0.88696  0.58441  0.62331  1.0000
  H   H9        1.0  0.29174  0.79610  0.56367  1.0000
  H   H10       1.0  0.70827  0.20390  0.43634  1.0000
  H   H11       1.0  0.07530  0.15124  0.29997  1.0000
  H   H12       1.0  0.92471  0.84876  0.70003  1.0000
  H   H13       1.0  0.11513  0.72833  0.34528  1.0000
  H   H14       1.0  0.88487  0.27166  0.65472  1.0000
  C   C1        1.0  0.16694  0.95282  0.39299  1.0000
  C   C2        1.0  0.83306  0.04718  0.60701  1.0000
  C   C3        1.0  0.35496  0.02480  0.63217  1.0000
  C   C4        1.0  0.64503  0.97521  0.36783  1.0000
  C   C5        1.0  0.27684  0.87845  0.53909  1.0000
  C   C6        1.0  0.72316  0.12156  0.46092  1.0000
  C   C7        1.0  0.18065  0.84224  0.41853  1.0000
  C   C8        1.0  0.81935  0.15776  0.58147  1.0000
  C   C9        1.0  0.24788  0.09699  0.49096  1.0000
  C   C10       1.0  0.75211  0.90300  0.50904  1.0000
  C   C11       1.0  0.23969  0.22419  0.48452  1.0000
  C   C12       1.0  0.76031  0.77581  0.51548  1.0000
  C   C13       1.0  0.17436  0.38083  0.43637  1.0000
  C   C14       1.0  0.82565  0.61917  0.56363  1.0000
  C   C15       1.0  0.27558  0.45427  0.56217  1.0000
  C   C16       1.0  0.72441  0.54572  0.43782  1.0000
  C   C17       1.0  0.89418  0.32377  0.96799  1.0000
  C   C18       1.0  0.10581  0.67622  0.03202  1.0000
  C   C19       1.0  0.73625  0.32241  0.90482  1.0000
  C   C20       1.0  0.26375  0.67759  0.09519  1.0000
  C   C21       1.0  0.06137  0.33344  0.90806  1.0000
  C   C22       1.0  0.93863  0.66655  0.09194  1.0000
  C   C23       1.0  0.88955  0.32430  0.09210  1.0000
  C   C24       1.0  0.11046  0.67570  0.90791  1.0000
  C   C25       1.0  0.62577  0.68711  0.87960  1.0000
  C   C26       1.0  0.37423  0.31287  0.12039  1.0000
  C   C27       1.0  0.67925  0.83813  0.94243  1.0000
  C   C28       1.0  0.32076  0.16187  0.05756  1.0000
  C   C29       1.0  0.80927  0.92467  0.05976  1.0000
  C   C30       1.0  0.19073  0.07532  0.94023  1.0000
  C   C31       1.0  0.61685  0.90531  0.87917  1.0000
  C   C32       1.0  0.38315  0.09469  0.12082  1.0000
  N   N1        1.0  0.33957  0.13094  0.60862  1.0000
  N   N2        1.0  0.66043  0.86906  0.39138  1.0000
  N   N3        1.0  0.31486  0.35544  0.59035  1.0000
  N   N4        1.0  0.68514  0.64457  0.40966  1.0000
  N   N5        1.0  0.60640  0.31895  0.84679  1.0000
  N   N6        1.0  0.39360  0.68105  0.15322  1.0000
  N   N7        1.0  0.19932  0.34266  0.85561  1.0000
  N   N8        1.0  0.80067  0.65734  0.14438  1.0000
  N   N9        1.0  0.88658  0.32642  0.19617  1.0000
  N   N10       1.0  0.11343  0.67359  0.80384  1.0000
  N   N11       1.0  0.58714  0.56058  0.81948  1.0000
  N   N12       1.0  0.41286  0.43943  0.18052  1.0000
  N   N13       1.0  0.92037  0.99838  0.15637  1.0000
  N   N14       1.0  0.07964  0.00162  0.84362  1.0000
  N   N15       1.0  0.56637  0.95984  0.82449  1.0000
  N   N16       1.0  0.43361  0.04016  0.17552  1.0000
  N   N17       1.0  0.15479  0.23715  0.38923  1.0000
  N   N18       1.0  0.84521  0.76286  0.61076  1.0000
