data_image0
_chemical_formula_structural       Ag2H18C18S2N4O6
_chemical_formula_sum              "Ag2 H18 C18 S2 N4 O6"
_cell_length_a       7.07029
_cell_length_b       8.25303
_cell_length_c       9.14909
_cell_angle_alpha    70.5563
_cell_angle_beta     84.7222
_cell_angle_gamma    80.9088

_space_group_name_H-M_alt    "P 1"
_space_group_IT_number       1

loop_
  _space_group_symop_operation_xyz
  'x, y, z'

loop_
  _atom_site_type_symbol
  _atom_site_label
  _atom_site_symmetry_multiplicity
  _atom_site_fract_x
  _atom_site_fract_y
  _atom_site_fract_z
  _atom_site_occupancy
  Ag  Ag1       1.0  0.99244  0.08466  0.80475  1.0000
  Ag  Ag2       1.0  0.00756  0.91534  0.19525  1.0000
  H   H1        1.0  0.71545  0.50651  0.64280  1.0000
  H   H2        1.0  0.28454  0.49349  0.35720  1.0000
  H   H3        1.0  0.92513  0.50428  0.84866  1.0000
  H   H4        1.0  0.07487  0.49572  0.15134  1.0000
  H   H5        1.0  0.84618  0.35327  0.12695  1.0000
  H   H6        1.0  0.15382  0.64672  0.87306  1.0000
  H   H7        1.0  0.56654  0.18655  0.20320  1.0000
  H   H8        1.0  0.43346  0.81345  0.79681  1.0000
  H   H9        1.0  0.11229  0.27916  0.44626  1.0000
  H   H10       1.0  0.88771  0.72084  0.55374  1.0000
  H   H11       1.0  0.00156  0.20650  0.31605  1.0000
  H   H12       1.0  0.99845  0.79351  0.68395  1.0000
  H   H13       1.0  0.31927  0.03611  0.37878  1.0000
  H   H14       1.0  0.68073  0.96389  0.62121  1.0000
  H   H15       1.0  0.25514  0.97840  0.58072  1.0000
  H   H16       1.0  0.74486  0.02161  0.41928  1.0000
  H   H17       1.0  0.78710  0.24184  0.52607  1.0000
  H   H18       1.0  0.21290  0.75816  0.47393  1.0000
  C   C1        1.0  0.52762  0.34751  0.81156  1.0000
  C   C2        1.0  0.47238  0.65248  0.18844  1.0000
  C   C3        1.0  0.68432  0.43750  0.76451  1.0000
  C   C4        1.0  0.31568  0.56250  0.23549  1.0000
  C   C5        1.0  0.80006  0.43605  0.88142  1.0000
  C   C6        1.0  0.19993  0.56395  0.11858  1.0000
  C   C7        1.0  0.75688  0.34904  0.03782  1.0000
  C   C8        1.0  0.24312  0.65096  0.96218  1.0000
  C   C9        1.0  0.60004  0.25662  0.08208  1.0000
  C   C10       1.0  0.39995  0.74338  0.91792  1.0000
  C   C11       1.0  0.48604  0.25578  0.96622  1.0000
  C   C12       1.0  0.51395  0.74422  0.03378  1.0000
  C   C13       1.0  0.31540  0.16408  0.98395  1.0000
  C   C14       1.0  0.68459  0.83592  0.01605  1.0000
  C   C15       1.0  0.05024  0.17044  0.43572  1.0000
  C   C16       1.0  0.94977  0.82957  0.56427  1.0000
  C   C17       1.0  0.19934  0.01110  0.46383  1.0000
  C   C18       1.0  0.80066  0.98890  0.53617  1.0000
  S   S1        1.0  0.35021  0.32192  0.69941  1.0000
  S   S2        1.0  0.64979  0.67809  0.30059  1.0000
  N   N1        1.0  0.23698  0.18970  0.84696  1.0000
  N   N2        1.0  0.76302  0.81030  0.15304  1.0000
  N   N3        1.0  0.88793  0.13405  0.54940  1.0000
  N   N4        1.0  0.11207  0.86595  0.45060  1.0000
  O   O1        1.0  0.22459  0.48388  0.63518  1.0000
  O   O2        1.0  0.77542  0.51611  0.36482  1.0000
  O   O3        1.0  0.43449  0.23589  0.58944  1.0000
  O   O4        1.0  0.56552  0.76411  0.41056  1.0000
  O   O5        1.0  0.25710  0.07305  0.11448  1.0000
  O   O6        1.0  0.74289  0.92696  0.88552  1.0000
