data_image0
_chemical_formula_structural       Ag2H26C22S2N4O8
_chemical_formula_sum              "Ag2 H26 C22 S2 N4 O8"
_cell_length_a       7.98774
_cell_length_b       8.49887
_cell_length_c       9.84909
_cell_angle_alpha    68.7567
_cell_angle_beta     85.6898
_cell_angle_gamma    85.5627

_space_group_name_H-M_alt    "P 1"
_space_group_IT_number       1

loop_
  _space_group_symop_operation_xyz
  'x, y, z'

loop_
  _atom_site_type_symbol
  _atom_site_label
  _atom_site_symmetry_multiplicity
  _atom_site_fract_x
  _atom_site_fract_y
  _atom_site_fract_z
  _atom_site_occupancy
  Ag  Ag1       1.0  0.32327  0.50183  0.33312  1.0000
  Ag  Ag2       1.0  0.67674  0.49816  0.66688  1.0000
  H   H1        1.0  0.56020  0.20853  0.28951  1.0000
  H   H2        1.0  0.43980  0.79147  0.71049  1.0000
  H   H3        1.0  0.73677  0.38188  0.07580  1.0000
  H   H4        1.0  0.26322  0.61812  0.92420  1.0000
  H   H5        1.0  0.87205  0.25646  0.89968  1.0000
  H   H6        1.0  0.12794  0.74355  0.10031  1.0000
  H   H7        1.0  0.82190  0.96032  0.92734  1.0000
  H   H8        1.0  0.17810  0.03968  0.07266  1.0000
  H   H9        1.0  0.08500  0.15300  0.20690  1.0000
  H   H10       1.0  0.91500  0.84700  0.79310  1.0000
  H   H11       1.0  0.00303  0.36564  0.15766  1.0000
  H   H12       1.0  0.99697  0.63436  0.84234  1.0000
  H   H13       1.0  0.93265  0.18490  0.41848  1.0000
  H   H14       1.0  0.06735  0.81510  0.58152  1.0000
  H   H15       1.0  0.15248  0.14036  0.44674  1.0000
  H   H16       1.0  0.84752  0.85964  0.55326  1.0000
  H   H17       1.0  0.80759  0.45475  0.40771  1.0000
  H   H18       1.0  0.19242  0.54525  0.59229  1.0000
  H   H19       1.0  0.93541  0.55514  0.24832  1.0000
  H   H20       1.0  0.06459  0.44486  0.75168  1.0000
  H   H21       1.0  0.16455  0.24324  0.62943  1.0000
  H   H22       1.0  0.83545  0.75676  0.37057  1.0000
  H   H23       1.0  0.94113  0.27292  0.63139  1.0000
  H   H24       1.0  0.05888  0.72708  0.36861  1.0000
  H   H25       1.0  0.29540  0.33210  0.08623  1.0000
  H   H26       1.0  0.70461  0.66790  0.91377  1.0000
  C   C1        1.0  0.58947  0.99294  0.22096  1.0000
  C   C2        1.0  0.41053  0.00706  0.77904  1.0000
  C   C3        1.0  0.61738  0.15607  0.21033  1.0000
  C   C4        1.0  0.38262  0.84393  0.78967  1.0000
  C   C5        1.0  0.71915  0.25071  0.09117  1.0000
  C   C6        1.0  0.28085  0.74930  0.90883  1.0000
  C   C7        1.0  0.79337  0.17995  0.99165  1.0000
  C   C8        1.0  0.20662  0.82005  0.00835  1.0000
  C   C9        1.0  0.76623  0.01377  0.00641  1.0000
  C   C10       1.0  0.23377  0.98623  0.99359  1.0000
  C   C11       1.0  0.66095  0.92024  0.12203  1.0000
  C   C12       1.0  0.33905  0.07976  0.87797  1.0000
  C   C13       1.0  0.60684  0.74406  0.15802  1.0000
  C   C14       1.0  0.39316  0.25594  0.84198  1.0000
  C   C15       1.0  0.09605  0.27235  0.22462  1.0000
  C   C16       1.0  0.90396  0.72765  0.77538  1.0000
  C   C17       1.0  0.05846  0.23622  0.38577  1.0000
  C   C18       1.0  0.94154  0.76378  0.61423  1.0000
  C   C19       1.0  0.92958  0.51336  0.36772  1.0000
  C   C20       1.0  0.07042  0.48664  0.63228  1.0000
  C   C21       1.0  0.06005  0.33551  0.58678  1.0000
  C   C22       1.0  0.93995  0.66449  0.41322  1.0000
  S   S1        1.0  0.46263  0.84257  0.35136  1.0000
  S   S2        1.0  0.53736  0.15743  0.64864  1.0000
  N   N1        1.0  0.49871  0.69551  0.27803  1.0000
  N   N2        1.0  0.50129  0.30449  0.72197  1.0000
  N   N3        1.0  0.06923  0.38699  0.42599  1.0000
  N   N4        1.0  0.93077  0.61301  0.57401  1.0000
  O   O1        1.0  0.65539  0.65068  0.08810  1.0000
  O   O2        1.0  0.34462  0.34932  0.91191  1.0000
  O   O3        1.0  0.53409  0.78635  0.49425  1.0000
  O   O4        1.0  0.46591  0.21365  0.50575  1.0000
  O   O5        1.0  0.28620  0.89875  0.34715  1.0000
  O   O6        1.0  0.71380  0.10125  0.65285  1.0000
  O   O7        1.0  0.26146  0.33073  0.18592  1.0000
  O   O8        1.0  0.73854  0.66926  0.81408  1.0000
