data_image0
_chemical_formula_structural       Zn4H20C28N6O14
_chemical_formula_sum              "Zn4 H20 C28 N6 O14"
_cell_length_a       8.04131
_cell_length_b       8.54051
_cell_length_c       12.2186
_cell_angle_alpha    101.465
_cell_angle_beta     94.9128
_cell_angle_gamma    95.285

_space_group_name_H-M_alt    "P 1"
_space_group_IT_number       1

loop_
  _space_group_symop_operation_xyz
  'x, y, z'

loop_
  _atom_site_type_symbol
  _atom_site_label
  _atom_site_symmetry_multiplicity
  _atom_site_fract_x
  _atom_site_fract_y
  _atom_site_fract_z
  _atom_site_occupancy
  Zn  Zn1       1.0  0.81751  0.91578  0.89654  1.0000
  Zn  Zn2       1.0  0.18248  0.08420  0.10347  1.0000
  Zn  Zn3       1.0  0.36419  0.50818  0.78216  1.0000
  Zn  Zn4       1.0  0.63579  0.49182  0.21784  1.0000
  H   H1        1.0  0.57404  0.72170  0.48621  1.0000
  H   H2        1.0  0.42599  0.27832  0.51380  1.0000
  H   H3        1.0  0.82550  0.31879  0.83740  1.0000
  H   H4        1.0  0.17448  0.68120  0.16261  1.0000
  H   H5        1.0  0.18256  0.99874  0.67470  1.0000
  H   H6        1.0  0.81743  0.00126  0.32529  1.0000
  H   H7        1.0  0.58095  0.17718  0.00687  1.0000
  H   H8        1.0  0.41905  0.82282  0.99313  1.0000
  H   H9        1.0  0.98117  0.34119  0.26086  1.0000
  H   H10       1.0  0.01881  0.65881  0.73914  1.0000
  H   H11       1.0  0.55873  0.63289  0.64819  1.0000
  H   H12       1.0  0.44128  0.36711  0.35181  1.0000
  H   H13       1.0  0.36932  0.56342  0.58860  1.0000
  H   H14       1.0  0.63068  0.43659  0.41141  1.0000
  H   H15       1.0  0.10313  0.24692  0.90575  1.0000
  H   H16       1.0  0.89684  0.75306  0.09426  1.0000
  H   H17       1.0  0.42355  0.79643  0.32200  1.0000
  H   H18       1.0  0.57647  0.20359  0.67801  1.0000
  H   H19       1.0  0.06449  0.73742  0.54265  1.0000
  H   H20       1.0  0.93551  0.26258  0.45733  1.0000
  C   C1        1.0  0.58440  0.95771  0.59297  1.0000
  C   C2        1.0  0.41565  0.04233  0.40704  1.0000
  C   C3        1.0  0.53977  0.84321  0.49276  1.0000
  C   C4        1.0  0.46027  0.15682  0.50723  1.0000
  C   C5        1.0  0.67447  0.91091  0.69113  1.0000
  C   C6        1.0  0.32554  0.08910  0.30888  1.0000
  C   C7        1.0  0.84591  0.54195  0.96037  1.0000
  C   C8        1.0  0.15407  0.45803  0.03963  1.0000
  C   C9        1.0  0.90231  0.39770  0.90842  1.0000
  C   C10       1.0  0.09766  0.60229  0.09158  1.0000
  C   C11       1.0  0.68217  0.58693  0.91662  1.0000
  C   C12       1.0  0.31782  0.41305  0.08338  1.0000
  C   C13       1.0  0.06326  0.14461  0.57366  1.0000
  C   C14       1.0  0.93675  0.85540  0.42632  1.0000
  C   C15       1.0  0.10127  0.99740  0.59842  1.0000
  C   C16       1.0  0.89874  0.00258  0.40156  1.0000
  C   C17       1.0  0.13976  0.30064  0.64678  1.0000
  C   C18       1.0  0.86025  0.69935  0.35321  1.0000
  C   C19       1.0  0.70012  0.18659  0.05786  1.0000
  C   C20       1.0  0.29987  0.81341  0.94215  1.0000
  C   C21       1.0  0.90419  0.27058  0.18705  1.0000
  C   C22       1.0  0.09580  0.72942  0.81296  1.0000
  C   C23       1.0  0.05613  0.35628  0.94792  1.0000
  C   C24       1.0  0.94385  0.64371  0.05208  1.0000
  C   C25       1.0  0.45590  0.88466  0.40028  1.0000
  C   C26       1.0  0.54415  0.11535  0.59973  1.0000
  C   C27       1.0  0.03842  0.85367  0.52519  1.0000
  C   C28       1.0  0.96160  0.14634  0.47479  1.0000
  N   N1        1.0  0.81857  0.08966  0.03583  1.0000
  N   N2        1.0  0.18142  0.91033  0.96418  1.0000
  N   N3        1.0  0.94977  0.14358  0.11867  1.0000
  N   N4        1.0  0.05021  0.85641  0.88134  1.0000
  N   N5        1.0  0.74845  0.30098  0.15189  1.0000
  N   N6        1.0  0.25154  0.69902  0.84812  1.0000
  O   O1        1.0  0.46241  0.54276  0.63845  1.0000
  O   O2        1.0  0.53758  0.45725  0.36156  1.0000
  O   O3        1.0  0.71668  0.02088  0.78096  1.0000
  O   O4        1.0  0.28332  0.97911  0.21906  1.0000
  O   O5        1.0  0.70703  0.76717  0.68657  1.0000
  O   O6        1.0  0.29299  0.23283  0.31343  1.0000
  O   O7        1.0  0.66030  0.73514  0.92417  1.0000
  O   O8        1.0  0.33967  0.26484  0.07582  1.0000
  O   O9        1.0  0.56845  0.47206  0.87310  1.0000
  O   O10       1.0  0.43153  0.52793  0.12689  1.0000
  O   O11       1.0  0.24195  0.29161  0.73359  1.0000
  O   O12       1.0  0.75805  0.70838  0.26640  1.0000
  O   O13       1.0  0.11174  0.43235  0.62151  1.0000
  O   O14       1.0  0.88828  0.56765  0.37848  1.0000
