data_image0
_chemical_formula_structural       KCu2AgH40C40N6O8
_chemical_formula_sum              "K1 Cu2 Ag1 H40 C40 N6 O8"
_cell_length_a       9.74105
_cell_length_b       10.2798
_cell_length_c       10.2798
_cell_angle_alpha    96.3499
_cell_angle_beta     100.972
_cell_angle_gamma    100.972

_space_group_name_H-M_alt    "P 1"
_space_group_IT_number       1

loop_
  _space_group_symop_operation_xyz
  'x, y, z'

loop_
  _atom_site_type_symbol
  _atom_site_label
  _atom_site_symmetry_multiplicity
  _atom_site_fract_x
  _atom_site_fract_y
  _atom_site_fract_z
  _atom_site_occupancy
  K   K1        1.0  0.99997  0.99997  0.99997  1.0000
  Cu  Cu1       1.0  0.67773  0.10673  0.10673  1.0000
  Cu  Cu2       1.0  0.32228  0.89327  0.89328  1.0000
  Ag  Ag1       1.0  0.00001  0.49999  0.49999  1.0000
  H   H1        1.0  0.34348  0.12706  0.12706  1.0000
  H   H2        1.0  0.65651  0.87295  0.87294  1.0000
  H   H3        1.0  0.33860  0.25484  0.25484  1.0000
  H   H4        1.0  0.66139  0.74516  0.74516  1.0000
  H   H5        1.0  0.84389  0.54722  0.20745  1.0000
  H   H6        1.0  0.15612  0.79255  0.45279  1.0000
  H   H7        1.0  0.15612  0.45279  0.79255  1.0000
  H   H8        1.0  0.84389  0.20745  0.54722  1.0000
  H   H9        1.0  0.61271  0.75164  0.45062  1.0000
  H   H10       1.0  0.38728  0.54937  0.24836  1.0000
  H   H11       1.0  0.38729  0.24836  0.54937  1.0000
  H   H12       1.0  0.61273  0.45063  0.75164  1.0000
  H   H13       1.0  0.00969  0.61240  0.09091  1.0000
  H   H14       1.0  0.99030  0.90909  0.38762  1.0000
  H   H15       1.0  0.99030  0.38761  0.90910  1.0000
  H   H16       1.0  0.00969  0.09091  0.61240  1.0000
  H   H17       1.0  0.97644  0.64959  0.92256  1.0000
  H   H18       1.0  0.02355  0.07743  0.35040  1.0000
  H   H19       1.0  0.02356  0.35040  0.07743  1.0000
  H   H20       1.0  0.97644  0.92256  0.64959  1.0000
  H   H21       1.0  0.84305  0.53422  0.97631  1.0000
  H   H22       1.0  0.15695  0.02368  0.46577  1.0000
  H   H23       1.0  0.15695  0.46577  0.02369  1.0000
  H   H24       1.0  0.84305  0.97632  0.53422  1.0000
  H   H25       1.0  0.72759  0.56061  0.40127  1.0000
  H   H26       1.0  0.27243  0.59873  0.43940  1.0000
  H   H27       1.0  0.27243  0.43940  0.59874  1.0000
  H   H28       1.0  0.72760  0.40127  0.56061  1.0000
  H   H29       1.0  0.57643  0.22827  0.38447  1.0000
  H   H30       1.0  0.42357  0.61553  0.77173  1.0000
  H   H31       1.0  0.42357  0.77173  0.61553  1.0000
  H   H32       1.0  0.57643  0.38447  0.22827  1.0000
  H   H33       1.0  0.43054  0.08965  0.36797  1.0000
  H   H34       1.0  0.56946  0.63204  0.91036  1.0000
  H   H35       1.0  0.56946  0.91035  0.63203  1.0000
  H   H36       1.0  0.43054  0.36797  0.08965  1.0000
  H   H37       1.0  0.53937  0.94058  0.39823  1.0000
  H   H38       1.0  0.46062  0.60177  0.05941  1.0000
  H   H39       1.0  0.46063  0.05941  0.60177  1.0000
  H   H40       1.0  0.53937  0.39823  0.94058  1.0000
  C   C1        1.0  0.67186  0.85155  0.28845  1.0000
  C   C2        1.0  0.32814  0.71154  0.14845  1.0000
  C   C3        1.0  0.32815  0.14845  0.71155  1.0000
  C   C4        1.0  0.67187  0.28846  0.85155  1.0000
  C   C5        1.0  0.74417  0.84966  0.18049  1.0000
  C   C6        1.0  0.25583  0.81950  0.15034  1.0000
  C   C7        1.0  0.25584  0.15034  0.81951  1.0000
  C   C8        1.0  0.74418  0.18050  0.84967  1.0000
  C   C9        1.0  0.41126  0.20626  0.20625  1.0000
  C   C10       1.0  0.58873  0.79374  0.79374  1.0000
  C   C11       1.0  0.80403  0.73470  0.15126  1.0000
  C   C12       1.0  0.19596  0.84874  0.26530  1.0000
  C   C13       1.0  0.19597  0.26530  0.84874  1.0000
  C   C14       1.0  0.80404  0.15126  0.73470  1.0000
  C   C15       1.0  0.79663  0.63286  0.22914  1.0000
  C   C16       1.0  0.20338  0.77086  0.36715  1.0000
  C   C17       1.0  0.20338  0.36715  0.77086  1.0000
  C   C18       1.0  0.79663  0.22914  0.63286  1.0000
  C   C19       1.0  0.92655  0.34506  0.34506  1.0000
  C   C20       1.0  0.07346  0.65493  0.65493  1.0000
  C   C21       1.0  0.66789  0.74696  0.36790  1.0000
  C   C22       1.0  0.33212  0.63210  0.25304  1.0000
  C   C23       1.0  0.33212  0.25304  0.63210  1.0000
  C   C24       1.0  0.66789  0.36790  0.74697  1.0000
  C   C25       1.0  0.92755  0.62619  0.00709  1.0000
  C   C26       1.0  0.07244  0.99290  0.37381  1.0000
  C   C27       1.0  0.07245  0.37380  0.99290  1.0000
  C   C28       1.0  0.92755  0.00709  0.62619  1.0000
  C   C29       1.0  0.72974  0.64026  0.33949  1.0000
  C   C30       1.0  0.27027  0.66051  0.35975  1.0000
  C   C31       1.0  0.27027  0.35975  0.66051  1.0000
  C   C32       1.0  0.72975  0.33950  0.64026  1.0000
  C   C33       1.0  0.50085  0.14670  0.31196  1.0000
  C   C34       1.0  0.49915  0.68804  0.85330  1.0000
  C   C35       1.0  0.49915  0.85330  0.68804  1.0000
  C   C36       1.0  0.50084  0.31196  0.14670  1.0000
  C   C37       1.0  0.59660  0.95455  0.31637  1.0000
  C   C38       1.0  0.40340  0.68363  0.04545  1.0000
  C   C39       1.0  0.40340  0.04545  0.68363  1.0000
  C   C40       1.0  0.59660  0.31637  0.95455  1.0000
  N   N1        1.0  0.88292  0.25586  0.25587  1.0000
  N   N2        1.0  0.11707  0.74413  0.74412  1.0000
  N   N3        1.0  0.58459  0.05850  0.25702  1.0000
  N   N4        1.0  0.41541  0.74298  0.94150  1.0000
  N   N5        1.0  0.41541  0.94150  0.74298  1.0000
  N   N6        1.0  0.58459  0.25703  0.05850  1.0000
  O   O1        1.0  0.86844  0.73871  0.04374  1.0000
  O   O2        1.0  0.13154  0.95624  0.26129  1.0000
  O   O3        1.0  0.13154  0.26129  0.95625  1.0000
  O   O4        1.0  0.86844  0.04374  0.73871  1.0000
  O   O5        1.0  0.75900  0.94453  0.10756  1.0000
  O   O6        1.0  0.24100  0.89243  0.05548  1.0000
  O   O7        1.0  0.24101  0.05548  0.89244  1.0000
  O   O8        1.0  0.75900  0.10758  0.94453  1.0000
