data_image0
_chemical_formula_structural       Fe2H16C20S4N28
_chemical_formula_sum              "Fe2 H16 C20 S4 N28"
_cell_length_a       8.4035
_cell_length_b       8.4035
_cell_length_c       12.7038
_cell_angle_alpha    91.8578
_cell_angle_beta     91.8578
_cell_angle_gamma    96.2682

_space_group_name_H-M_alt    "P 1"
_space_group_IT_number       1

loop_
  _space_group_symop_operation_xyz
  'x, y, z'

loop_
  _atom_site_type_symbol
  _atom_site_label
  _atom_site_symmetry_multiplicity
  _atom_site_fract_x
  _atom_site_fract_y
  _atom_site_fract_z
  _atom_site_occupancy
  Fe  Fe1       1.0  0.00000  0.50000  0.50000  1.0000
  Fe  Fe2       1.0  0.50000  1.00000  0.00000  1.0000
  H   H1        1.0  0.88996  0.28717  0.86106  1.0000
  H   H2        1.0  0.71283  0.11004  0.63894  1.0000
  H   H3        1.0  0.11004  0.71283  0.13894  1.0000
  H   H4        1.0  0.28717  0.88996  0.36106  1.0000
  H   H5        1.0  0.27737  0.44030  0.66685  1.0000
  H   H6        1.0  0.55971  0.72263  0.83315  1.0000
  H   H7        1.0  0.72263  0.55970  0.33315  1.0000
  H   H8        1.0  0.44029  0.27736  0.16684  1.0000
  H   H9        1.0  0.29218  0.53771  0.95722  1.0000
  H   H10       1.0  0.46229  0.70782  0.54279  1.0000
  H   H11       1.0  0.70782  0.46229  0.04279  1.0000
  H   H12       1.0  0.53771  0.29218  0.45721  1.0000
  H   H13       1.0  0.23980  0.06508  0.82046  1.0000
  H   H14       1.0  0.93493  0.76020  0.67954  1.0000
  H   H15       1.0  0.76020  0.93493  0.17954  1.0000
  H   H16       1.0  0.06507  0.23980  0.32046  1.0000
  C   C1        1.0  0.80093  0.18308  0.43508  1.0000
  C   C2        1.0  0.81691  0.19907  0.06492  1.0000
  C   C3        1.0  0.19908  0.81691  0.56493  1.0000
  C   C4        1.0  0.18307  0.80092  0.93507  1.0000
  C   C5        1.0  0.95508  0.33366  0.79426  1.0000
  C   C6        1.0  0.66635  0.04492  0.70574  1.0000
  C   C7        1.0  0.04492  0.66635  0.20574  1.0000
  C   C8        1.0  0.33366  0.95508  0.29426  1.0000
  C   C9        1.0  0.15753  0.41508  0.69576  1.0000
  C   C10       1.0  0.58492  0.84247  0.80424  1.0000
  C   C11       1.0  0.84247  0.58492  0.30424  1.0000
  C   C12       1.0  0.41508  0.15753  0.19576  1.0000
  C   C13       1.0  0.30651  0.41179  0.94481  1.0000
  C   C14       1.0  0.58821  0.69349  0.55520  1.0000
  C   C15       1.0  0.69349  0.58821  0.05520  1.0000
  C   C16       1.0  0.41179  0.30651  0.44481  1.0000
  C   C17       1.0  0.27747  0.16573  0.87467  1.0000
  C   C18       1.0  0.83427  0.72252  0.62533  1.0000
  C   C19       1.0  0.72252  0.83427  0.12532  1.0000
  C   C20       1.0  0.16574  0.27748  0.37468  1.0000
  S   S1        1.0  0.72162  0.00437  0.39767  1.0000
  S   S2        1.0  0.99563  0.27838  0.10233  1.0000
  S   S3        1.0  0.27838  0.99563  0.60234  1.0000
  S   S4        1.0  0.00437  0.72161  0.89766  1.0000
  N   N1        1.0  0.85632  0.31423  0.46328  1.0000
  N   N2        1.0  0.68577  0.14368  0.03673  1.0000
  N   N3        1.0  0.14368  0.68578  0.53673  1.0000
  N   N4        1.0  0.31423  0.85633  0.96327  1.0000
  N   N5        1.0  0.02216  0.42745  0.64293  1.0000
  N   N6        1.0  0.57255  0.97783  0.85707  1.0000
  N   N7        1.0  0.97784  0.57256  0.35707  1.0000
  N   N8        1.0  0.42744  0.02216  0.14293  1.0000
  N   N9        1.0  0.89422  0.37681  0.70446  1.0000
  N   N10       1.0  0.62319  0.10578  0.79554  1.0000
  N   N11       1.0  0.10578  0.62319  0.29554  1.0000
  N   N12       1.0  0.37680  0.89422  0.20446  1.0000
  N   N13       1.0  0.11945  0.35456  0.79140  1.0000
  N   N14       1.0  0.64544  0.88055  0.70860  1.0000
  N   N15       1.0  0.88054  0.64544  0.20860  1.0000
  N   N16       1.0  0.35456  0.11945  0.29140  1.0000
  N   N17       1.0  0.22799  0.31477  0.86610  1.0000
  N   N18       1.0  0.68524  0.77201  0.63390  1.0000
  N   N19       1.0  0.77201  0.68524  0.13390  1.0000
  N   N20       1.0  0.31476  0.22799  0.36610  1.0000
  N   N21       1.0  0.38214  0.17340  0.95476  1.0000
  N   N22       1.0  0.82660  0.61786  0.54524  1.0000
  N   N23       1.0  0.61786  0.82660  0.04524  1.0000
  N   N24       1.0  0.17340  0.38214  0.45476  1.0000
  N   N25       1.0  0.40117  0.32758  0.99869  1.0000
  N   N26       1.0  0.67242  0.59883  0.50131  1.0000
  N   N27       1.0  0.59883  0.67242  0.00131  1.0000
  N   N28       1.0  0.32759  0.40117  0.49869  1.0000
