data_image0
_chemical_formula_structural       Mn3H28C28O16
_chemical_formula_sum              "Mn3 H28 C28 O16"
_cell_length_a       9.4612
_cell_length_b       9.84167
_cell_length_c       10.4556
_cell_angle_alpha    102.167
_cell_angle_beta     109.179
_cell_angle_gamma    106.527

_space_group_name_H-M_alt    "P 1"
_space_group_IT_number       1

loop_
  _space_group_symop_operation_xyz
  'x, y, z'

loop_
  _atom_site_type_symbol
  _atom_site_label
  _atom_site_symmetry_multiplicity
  _atom_site_fract_x
  _atom_site_fract_y
  _atom_site_fract_z
  _atom_site_occupancy
  Mn  Mn1       1.0  0.00010  0.00116  0.00122  1.0000
  Mn  Mn2       1.0  0.91803  0.11441  0.30070  1.0000
  Mn  Mn3       1.0  0.08132  0.88451  0.69844  1.0000
  H   H1        1.0  0.42867  0.95223  0.23934  1.0000
  H   H2        1.0  0.57099  0.04807  0.76090  1.0000
  H   H3        1.0  0.33083  0.08543  0.61080  1.0000
  H   H4        1.0  0.66849  0.91436  0.38932  1.0000
  H   H5        1.0  0.84314  0.22572  0.88623  1.0000
  H   H6        1.0  0.15924  0.77640  0.11638  1.0000
  H   H7        1.0  0.15682  0.60879  0.26724  1.0000
  H   H8        1.0  0.84581  0.39336  0.73548  1.0000
  H   H9        1.0  0.69573  0.55332  0.88815  1.0000
  H   H10       1.0  0.30400  0.44607  0.10992  1.0000
  H   H11       1.0  0.51196  0.70589  0.19120  1.0000
  H   H12       1.0  0.48793  0.29347  0.80703  1.0000
  H   H13       1.0  0.09808  0.34653  0.73085  1.0000
  H   H14       1.0  0.90036  0.65149  0.26844  1.0000
  H   H15       1.0  0.09639  0.41404  0.58448  1.0000
  H   H16       1.0  0.90208  0.58497  0.41533  1.0000
  H   H17       1.0  0.20493  0.29544  0.62736  1.0000
  H   H18       1.0  0.79363  0.70344  0.37166  1.0000
  H   H19       1.0  0.49789  0.21678  0.17079  1.0000
  H   H20       1.0  0.50118  0.78158  0.82807  1.0000
  H   H21       1.0  0.60110  0.15867  0.06718  1.0000
  H   H22       1.0  0.39823  0.84071  0.93151  1.0000
  H   H23       1.0  0.67814  0.35084  0.17786  1.0000
  H   H24       1.0  0.32049  0.64833  0.82112  1.0000
  H   H25       1.0  0.72331  0.24933  0.37451  1.0000
  H   H26       1.0  0.27486  0.74822  0.62402  1.0000
  H   H27       1.0  0.93417  0.10817  0.56481  1.0000
  H   H28       1.0  0.06434  0.89053  0.43405  1.0000
  C   C1        1.0  0.21581  0.03833  0.32247  1.0000
  C   C2        1.0  0.78407  0.96240  0.67808  1.0000
  C   C3        1.0  0.36331  0.02030  0.41459  1.0000
  C   C4        1.0  0.63627  0.97994  0.58567  1.0000
  C   C5        1.0  0.45982  0.97237  0.35347  1.0000
  C   C6        1.0  0.53972  0.02780  0.64674  1.0000
  C   C7        1.0  0.40475  0.04814  0.56201  1.0000
  C   C8        1.0  0.59468  0.95183  0.43816  1.0000
  C   C9        1.0  0.99518  0.30751  0.17293  1.0000
  C   C10       1.0  0.00711  0.69483  0.82995  1.0000
  C   C11       1.0  0.99939  0.40748  0.08486  1.0000
  C   C12       1.0  0.00310  0.59465  0.91787  1.0000
  C   C13       1.0  0.91181  0.34643  0.93512  1.0000
  C   C14       1.0  0.09072  0.65566  0.06759  1.0000
  C   C15       1.0  0.08883  0.56292  0.15085  1.0000
  C   C16       1.0  0.91379  0.43921  0.85188  1.0000
  C   C17       1.0  0.74321  0.80021  0.09400  1.0000
  C   C18       1.0  0.25681  0.19914  0.90480  1.0000
  C   C19       1.0  0.61730  0.64508  0.04488  1.0000
  C   C20       1.0  0.38258  0.35434  0.95337  1.0000
  C   C21       1.0  0.60931  0.52862  0.93586  1.0000
  C   C22       1.0  0.39048  0.47082  0.06226  1.0000
  C   C23       1.0  0.50650  0.61496  0.10744  1.0000
  C   C24       1.0  0.49331  0.38444  0.89072  1.0000
  C   C25       1.0  0.09700  0.31898  0.62312  1.0000
  C   C26       1.0  0.90152  0.67971  0.37617  1.0000
  C   C27       1.0  0.61697  0.23381  0.16883  1.0000
  C   C28       1.0  0.38216  0.76518  0.82997  1.0000
  O   O1        1.0  0.10587  0.03364  0.37147  1.0000
  O   O2        1.0  0.89318  0.96566  0.62831  1.0000
  O   O3        1.0  0.20500  0.05528  0.20379  1.0000
  O   O4        1.0  0.79556  0.94721  0.79747  1.0000
  O   O5        1.0  0.92103  0.16244  0.10596  1.0000
  O   O6        1.0  0.08105  0.83967  0.89660  1.0000
  O   O7        1.0  0.05410  0.35940  0.30856  1.0000
  O   O8        1.0  0.94781  0.64259  0.69414  1.0000
  O   O9        1.0  0.84090  0.82273  0.03441  1.0000
  O   O10       1.0  0.15973  0.17698  0.96495  1.0000
  O   O11       1.0  0.74299  0.89990  0.19488  1.0000
  O   O12       1.0  0.25676  0.09927  0.80389  1.0000
  O   O13       1.0  0.71413  0.19399  0.28141  1.0000
  O   O14       1.0  0.28554  0.80514  0.71718  1.0000
  O   O15       1.0  0.95073  0.19196  0.52373  1.0000
  O   O16       1.0  0.04785  0.80679  0.47518  1.0000
