data_image0
_chemical_formula_structural       Cu2H18C16N4Cl4
_chemical_formula_sum              "Cu2 H18 C16 N4 Cl4"
_cell_length_a       7.45784
_cell_length_b       8.8144
_cell_length_c       8.71749
_cell_angle_alpha    93.0681
_cell_angle_beta     119.41
_cell_angle_gamma    95.3446

_space_group_name_H-M_alt    "P 1"
_space_group_IT_number       1

loop_
  _space_group_symop_operation_xyz
  'x, y, z'

loop_
  _atom_site_type_symbol
  _atom_site_label
  _atom_site_symmetry_multiplicity
  _atom_site_fract_x
  _atom_site_fract_y
  _atom_site_fract_z
  _atom_site_occupancy
  Cu  Cu1       1.0  0.01014  0.68852  0.01431  1.0000
  Cu  Cu2       1.0  0.98988  0.31146  0.98572  1.0000
  H   H1        1.0  0.08750  0.66133  0.46980  1.0000
  H   H2        1.0  0.91248  0.33870  0.53020  1.0000
  H   H3        1.0  0.70616  0.61821  0.25941  1.0000
  H   H4        1.0  0.29382  0.38180  0.74058  1.0000
  H   H5        1.0  0.46448  0.66617  0.37742  1.0000
  H   H6        1.0  0.53550  0.33381  0.62259  1.0000
  H   H7        1.0  0.61578  0.72539  0.70330  1.0000
  H   H8        1.0  0.38423  0.27458  0.29672  1.0000
  H   H9        1.0  0.37091  0.65262  0.80317  1.0000
  H   H10       1.0  0.62907  0.34737  0.19682  1.0000
  H   H11       1.0  0.29078  0.98319  0.08775  1.0000
  H   H12       1.0  0.70923  0.01682  0.91225  1.0000
  H   H13       1.0  0.11957  0.97677  0.85581  1.0000
  H   H14       1.0  0.88044  0.02324  0.14419  1.0000
  H   H15       1.0  0.66215  0.76797  0.02374  1.0000
  H   H16       1.0  0.33786  0.23203  0.97626  1.0000
  H   H17       1.0  0.62514  0.86593  0.18801  1.0000
  H   H18       1.0  0.37487  0.13407  0.81198  1.0000
  C   C1        1.0  0.05111  0.70745  0.69870  1.0000
  C   C2        1.0  0.94890  0.29255  0.30130  1.0000
  C   C3        1.0  0.97879  0.66980  0.51838  1.0000
  C   C4        1.0  0.02121  0.33022  0.48163  1.0000
  C   C5        1.0  0.76544  0.65080  0.40013  1.0000
  C   C6        1.0  0.23454  0.34921  0.59987  1.0000
  C   C7        1.0  0.63187  0.67430  0.46540  1.0000
  C   C8        1.0  0.36813  0.32570  0.53460  1.0000
  C   C9        1.0  0.71596  0.70986  0.64730  1.0000
  C   C10       1.0  0.28403  0.29014  0.35270  1.0000
  C   C11       1.0  0.27566  0.73180  0.81954  1.0000
  C   C12       1.0  0.72435  0.26820  0.18045  1.0000
  C   C13       1.0  0.28328  0.98501  0.95823  1.0000
  C   C14       1.0  0.71673  0.01500  0.04177  1.0000
  C   C15       1.0  0.60158  0.86766  0.05320  1.0000
  C   C16       1.0  0.39841  0.13234  0.94679  1.0000
  N   N1        1.0  0.92079  0.72158  0.76533  1.0000
  N   N2        1.0  0.07922  0.27843  0.23466  1.0000
  N   N3        1.0  0.37723  0.85455  0.93218  1.0000
  N   N4        1.0  0.62277  0.14545  0.06781  1.0000
  Cl  Cl1       1.0  0.16335  0.84008  0.26852  1.0000
  Cl  Cl2       1.0  0.83668  0.15994  0.73149  1.0000
  Cl  Cl3       1.0  0.25631  0.50094  0.02015  1.0000
  Cl  Cl4       1.0  0.74367  0.49905  0.97983  1.0000
