data_image0
_chemical_formula_structural       Cu2H8C14N8O6
_chemical_formula_sum              "Cu2 H8 C14 N8 O6"
_cell_length_a       6.89488
_cell_length_b       8.36301
_cell_length_c       8.49671
_cell_angle_alpha    112.453
_cell_angle_beta     107.27
_cell_angle_gamma    96.0897

_space_group_name_H-M_alt    "P 1"
_space_group_IT_number       1

loop_
  _space_group_symop_operation_xyz
  'x, y, z'

loop_
  _atom_site_type_symbol
  _atom_site_label
  _atom_site_symmetry_multiplicity
  _atom_site_fract_x
  _atom_site_fract_y
  _atom_site_fract_z
  _atom_site_occupancy
  Cu  Cu1       1.0  0.10582  0.24387  0.07413  1.0000
  Cu  Cu2       1.0  0.89416  0.75612  0.92585  1.0000
  H   H1        1.0  0.84403  0.37640  0.21939  1.0000
  H   H2        1.0  0.15597  0.62362  0.78061  1.0000
  H   H3        1.0  0.75540  0.33314  0.01008  1.0000
  H   H4        1.0  0.24460  0.66688  0.98992  1.0000
  H   H5        1.0  0.34966  0.07626  0.93761  1.0000
  H   H6        1.0  0.65033  0.92374  0.06238  1.0000
  H   H7        1.0  0.36075  0.02509  0.10280  1.0000
  H   H8        1.0  0.63924  0.97490  0.89719  1.0000
  C   C1        1.0  0.26847  0.24037  0.44656  1.0000
  C   C2        1.0  0.73153  0.75963  0.55347  1.0000
  C   C3        1.0  0.52082  0.40233  0.74604  1.0000
  C   C4        1.0  0.47917  0.59768  0.25394  1.0000
  C   C5        1.0  0.12353  0.86572  0.33992  1.0000
  C   C6        1.0  0.87647  0.13428  0.66010  1.0000
  C   C7        1.0  0.24445  0.77489  0.57828  1.0000
  C   C8        1.0  0.75554  0.22510  0.42171  1.0000
  C   C9        1.0  0.38025  0.23973  0.61184  1.0000
  C   C10       1.0  0.61975  0.76026  0.38817  1.0000
  C   C11       1.0  0.37253  0.08811  0.65435  1.0000
  C   C12       1.0  0.62747  0.91189  0.34565  1.0000
  C   C13       1.0  0.24166  0.91292  0.52268  1.0000
  C   C14       1.0  0.75833  0.08708  0.47731  1.0000
  N   N1        1.0  0.17142  0.25097  0.31348  1.0000
  N   N2        1.0  0.82863  0.74902  0.68653  1.0000
  N   N3        1.0  0.64043  0.53770  0.85551  1.0000
  N   N4        1.0  0.35957  0.46229  0.14448  1.0000
  N   N5        1.0  0.02470  0.82174  0.18558  1.0000
  N   N6        1.0  0.97530  0.17827  0.81444  1.0000
  N   N7        1.0  0.25038  0.66195  0.62778  1.0000
  N   N8        1.0  0.74963  0.33806  0.37222  1.0000
  O   O1        1.0  0.48824  0.11216  0.81519  1.0000
  O   O2        1.0  0.51174  0.88784  0.18480  1.0000
  O   O3        1.0  0.88544  0.38670  0.11915  1.0000
  O   O4        1.0  0.11457  0.61330  0.88086  1.0000
  O   O5        1.0  0.26550  0.05059  0.00703  1.0000
  O   O6        1.0  0.73450  0.94942  0.99298  1.0000
