data_image0
_chemical_formula_structural       Zn2H18C28N6O10
_chemical_formula_sum              "Zn2 H18 C28 N6 O10"
_cell_length_a       7.61125
_cell_length_b       9.66345
_cell_length_c       10.2704
_cell_angle_alpha    92.6782
_cell_angle_beta     110.262
_cell_angle_gamma    110.141

_space_group_name_H-M_alt    "P 1"
_space_group_IT_number       1

loop_
  _space_group_symop_operation_xyz
  'x, y, z'

loop_
  _atom_site_type_symbol
  _atom_site_label
  _atom_site_symmetry_multiplicity
  _atom_site_fract_x
  _atom_site_fract_y
  _atom_site_fract_z
  _atom_site_occupancy
  Zn  Zn1       1.0  0.24595  0.45039  0.05907  1.0000
  Zn  Zn2       1.0  0.75405  0.54961  0.94093  1.0000
  H   H1        1.0  0.45610  0.66454  0.57291  1.0000
  H   H2        1.0  0.54390  0.33546  0.42709  1.0000
  H   H3        1.0  0.59934  0.78392  0.21943  1.0000
  H   H4        1.0  0.40066  0.21608  0.78058  1.0000
  H   H5        1.0  0.65368  0.03514  0.33789  1.0000
  H   H6        1.0  0.34631  0.96486  0.66211  1.0000
  H   H7        1.0  0.09223  0.29983  0.74500  1.0000
  H   H8        1.0  0.90776  0.70017  0.25499  1.0000
  H   H9        1.0  0.04434  0.07282  0.84721  1.0000
  H   H10       1.0  0.95566  0.92718  0.15278  1.0000
  H   H11       1.0  0.80755  0.82006  0.69834  1.0000
  H   H12       1.0  0.19245  0.17994  0.30166  1.0000
  H   H13       1.0  0.18498  0.46195  0.58130  1.0000
  H   H14       1.0  0.81501  0.53805  0.41870  1.0000
  H   H15       1.0  0.99256  0.46483  0.64242  1.0000
  H   H16       1.0  0.00743  0.53517  0.35757  1.0000
  H   H17       1.0  0.19523  0.98851  0.04198  1.0000
  H   H18       1.0  0.80477  0.01149  0.95802  1.0000
  C   C1        1.0  0.45241  0.65777  0.46592  1.0000
  C   C2        1.0  0.54759  0.34223  0.53408  1.0000
  C   C3        1.0  0.52551  0.72428  0.28486  1.0000
  C   C4        1.0  0.47450  0.27572  0.71514  1.0000
  C   C5        1.0  0.71873  0.91401  0.50987  1.0000
  C   C6        1.0  0.28127  0.08600  0.49013  1.0000
  C   C7        1.0  0.74225  0.04091  0.44857  1.0000
  C   C8        1.0  0.25775  0.95909  0.55143  1.0000
  C   C9        1.0  0.87976  0.18105  0.53297  1.0000
  C   C10       1.0  0.12023  0.81896  0.46702  1.0000
  C   C11       1.0  0.98668  0.19209  0.67743  1.0000
  C   C12       1.0  0.01332  0.80791  0.32257  1.0000
  C   C13       1.0  0.95835  0.06202  0.73523  1.0000
  C   C14       1.0  0.04165  0.93798  0.26477  1.0000
  C   C15       1.0  0.82661  0.92126  0.65309  1.0000
  C   C16       1.0  0.17339  0.07874  0.34691  1.0000
  C   C17       1.0  0.02446  0.44639  0.54800  1.0000
  C   C18       1.0  0.97553  0.55361  0.45199  1.0000
  C   C19       1.0  0.48481  0.13413  0.04508  1.0000
  C   C20       1.0  0.51520  0.86587  0.95492  1.0000
  C   C21       1.0  0.65968  0.14015  0.02304  1.0000
  C   C22       1.0  0.34033  0.85985  0.97696  1.0000
  C   C23       1.0  0.32936  0.99447  0.02266  1.0000
  C   C24       1.0  0.67064  0.00553  0.97734  1.0000
  C   C25       1.0  0.44838  0.26909  0.08955  1.0000
  C   C26       1.0  0.55163  0.73092  0.91046  1.0000
  C   C27       1.0  0.83290  0.28659  0.04596  1.0000
  C   C28       1.0  0.16710  0.71342  0.95404  1.0000
  N   N1        1.0  0.37943  0.58884  0.24498  1.0000
  N   N2        1.0  0.62057  0.41116  0.75502  1.0000
  N   N3        1.0  0.33234  0.54567  0.35866  1.0000
  N   N4        1.0  0.66766  0.45433  0.64134  1.0000
  N   N5        1.0  0.57550  0.77224  0.42438  1.0000
  N   N6        1.0  0.42450  0.22776  0.57562  1.0000
  O   O1        1.0  0.89575  0.29926  0.46501  1.0000
  O   O2        1.0  0.10425  0.70073  0.53498  1.0000
  O   O3        1.0  0.36507  0.32808  0.98590  1.0000
  O   O4        1.0  0.63493  0.67192  0.01409  1.0000
  O   O5        1.0  0.47785  0.30685  0.21506  1.0000
  O   O6        1.0  0.52215  0.69315  0.78494  1.0000
  O   O7        1.0  0.81172  0.40884  0.07255  1.0000
  O   O8        1.0  0.18829  0.59116  0.92745  1.0000
  O   O9        1.0  0.99193  0.27809  0.03706  1.0000
  O   O10       1.0  0.00807  0.72192  0.96294  1.0000
