data_image0
_chemical_formula_structural       Ag4H20C20S4N8O12
_chemical_formula_sum              "Ag4 H20 C20 S4 N8 O12"
_cell_length_a       7.85205
_cell_length_b       8.14797
_cell_length_c       11.5323
_cell_angle_alpha    89.9994
_cell_angle_beta     89.9996
_cell_angle_gamma    102.265

_space_group_name_H-M_alt    "P 1"
_space_group_IT_number       1

loop_
  _space_group_symop_operation_xyz
  'x, y, z'

loop_
  _atom_site_type_symbol
  _atom_site_label
  _atom_site_symmetry_multiplicity
  _atom_site_fract_x
  _atom_site_fract_y
  _atom_site_fract_z
  _atom_site_occupancy
  Ag  Ag1       1.0  0.17265  0.07281  0.56252  1.0000
  Ag  Ag2       1.0  0.32735  0.92719  0.06251  1.0000
  Ag  Ag3       1.0  0.82736  0.92719  0.43749  1.0000
  Ag  Ag4       1.0  0.67265  0.07281  0.93749  1.0000
  H   H1        1.0  0.11015  0.01650  0.32207  1.0000
  H   H2        1.0  0.38986  0.98351  0.82207  1.0000
  H   H3        1.0  0.88986  0.98350  0.67793  1.0000
  H   H4        1.0  0.61015  0.01649  0.17793  1.0000
  H   H5        1.0  0.96240  0.06486  0.22870  1.0000
  H   H6        1.0  0.53760  0.93515  0.72869  1.0000
  H   H7        1.0  0.03760  0.93514  0.77131  1.0000
  H   H8        1.0  0.46240  0.06485  0.27130  1.0000
  H   H9        1.0  0.96056  0.35547  0.19333  1.0000
  H   H10       1.0  0.53944  0.64454  0.69333  1.0000
  H   H11       1.0  0.03944  0.64453  0.80667  1.0000
  H   H12       1.0  0.46056  0.35546  0.30668  1.0000
  H   H13       1.0  0.08825  0.65292  0.24900  1.0000
  H   H14       1.0  0.41175  0.34710  0.74900  1.0000
  H   H15       1.0  0.91175  0.34709  0.75100  1.0000
  H   H16       1.0  0.58825  0.65291  0.25101  1.0000
  H   H17       1.0  0.31477  0.46075  0.54791  1.0000
  H   H18       1.0  0.18521  0.53925  0.04791  1.0000
  H   H19       1.0  0.68522  0.53925  0.45209  1.0000
  H   H20       1.0  0.81478  0.46075  0.95209  1.0000
  C   C1        1.0  0.07314  0.25339  0.34019  1.0000
  C   C2        1.0  0.42686  0.74662  0.84018  1.0000
  C   C3        1.0  0.92686  0.74661  0.65982  1.0000
  C   C4        1.0  0.57314  0.25337  0.15981  1.0000
  C   C5        1.0  0.03807  0.38450  0.27182  1.0000
  C   C6        1.0  0.46193  0.61551  0.77181  1.0000
  C   C7        1.0  0.96192  0.61550  0.72819  1.0000
  C   C8        1.0  0.53806  0.38449  0.22819  1.0000
  C   C9        1.0  0.11023  0.54912  0.30258  1.0000
  C   C10       1.0  0.38977  0.45089  0.80258  1.0000
  C   C11       1.0  0.88977  0.45088  0.69742  1.0000
  C   C12       1.0  0.61022  0.54912  0.19742  1.0000
  C   C13       1.0  0.21643  0.57894  0.40105  1.0000
  C   C14       1.0  0.28358  0.42107  0.90105  1.0000
  C   C15       1.0  0.78358  0.42106  0.59895  1.0000
  C   C16       1.0  0.71643  0.57894  0.09895  1.0000
  C   C17       1.0  0.23725  0.44325  0.46882  1.0000
  C   C18       1.0  0.26275  0.55676  0.96881  1.0000
  C   C19       1.0  0.76275  0.55675  0.53118  1.0000
  C   C20       1.0  0.73725  0.44323  0.03119  1.0000
  S   S1        1.0  0.34144  0.78270  0.43361  1.0000
  S   S2        1.0  0.15857  0.21731  0.93361  1.0000
  S   S3        1.0  0.65856  0.21730  0.56639  1.0000
  S   S4        1.0  0.84145  0.78270  0.06639  1.0000
  N   N1        1.0  0.16539  0.28381  0.43983  1.0000
  N   N2        1.0  0.33461  0.71620  0.93982  1.0000
  N   N3        1.0  0.83461  0.71620  0.56017  1.0000
  N   N4        1.0  0.66539  0.28379  0.06017  1.0000
  N   N5        1.0  0.01495  0.08514  0.31017  1.0000
  N   N6        1.0  0.48505  0.91487  0.81017  1.0000
  N   N7        1.0  0.98505  0.91486  0.68983  1.0000
  N   N8        1.0  0.51495  0.08513  0.18983  1.0000
  O   O1        1.0  0.52082  0.77078  0.40433  1.0000
  O   O2        1.0  0.97919  0.22922  0.90433  1.0000
  O   O3        1.0  0.47919  0.22922  0.59568  1.0000
  O   O4        1.0  0.02082  0.77077  0.09567  1.0000
  O   O5        1.0  0.31605  0.81380  0.55710  1.0000
  O   O6        1.0  0.18397  0.18621  0.05708  1.0000
  O   O7        1.0  0.68396  0.18621  0.44291  1.0000
  O   O8        1.0  0.81603  0.81378  0.94291  1.0000
  O   O9        1.0  0.27567  0.89958  0.35608  1.0000
  O   O10       1.0  0.22433  0.10043  0.85607  1.0000
  O   O11       1.0  0.72434  0.10043  0.64392  1.0000
  O   O12       1.0  0.77567  0.89957  0.14393  1.0000
