data_image0
_chemical_formula_structural       Cd4H20C36N16O14
_chemical_formula_sum              "Cd4 H20 C36 N16 O14"
_cell_length_a       8.05466
_cell_length_b       9.23942
_cell_length_c       15.1753
_cell_angle_alpha    101.079
_cell_angle_beta     95.7805
_cell_angle_gamma    99.6869

_space_group_name_H-M_alt    "P 1"
_space_group_IT_number       1

loop_
  _space_group_symop_operation_xyz
  'x, y, z'

loop_
  _atom_site_type_symbol
  _atom_site_label
  _atom_site_symmetry_multiplicity
  _atom_site_fract_x
  _atom_site_fract_y
  _atom_site_fract_z
  _atom_site_occupancy
  Cd  Cd1       1.0  0.31635  0.34537  0.93233  1.0000
  Cd  Cd2       1.0  0.68365  0.65463  0.06768  1.0000
  Cd  Cd3       1.0  0.47393  0.19272  0.62143  1.0000
  Cd  Cd4       1.0  0.52608  0.80728  0.37857  1.0000
  H   H1        1.0  0.70512  0.40845  0.55203  1.0000
  H   H2        1.0  0.29489  0.59156  0.44797  1.0000
  H   H3        1.0  0.52375  0.38971  0.49351  1.0000
  H   H4        1.0  0.47625  0.61033  0.50650  1.0000
  H   H5        1.0  0.39255  0.78975  0.79085  1.0000
  H   H6        1.0  0.60746  0.21027  0.20915  1.0000
  H   H7        1.0  0.24694  0.85289  0.06062  1.0000
  H   H8        1.0  0.75305  0.14711  0.93937  1.0000
  H   H9        1.0  0.05386  0.10628  0.79177  1.0000
  H   H10       1.0  0.94615  0.89372  0.20824  1.0000
  H   H11       1.0  0.95441  0.52036  0.91826  1.0000
  H   H12       1.0  0.04558  0.47964  0.08173  1.0000
  H   H13       1.0  0.68796  0.47617  0.81052  1.0000
  H   H14       1.0  0.31204  0.52382  0.18947  1.0000
  H   H15       1.0  0.13685  0.78083  0.55699  1.0000
  H   H16       1.0  0.86315  0.21918  0.44301  1.0000
  H   H17       1.0  0.01639  0.44331  0.32220  1.0000
  H   H18       1.0  0.98364  0.55670  0.67780  1.0000
  H   H19       1.0  0.73890  0.52712  0.28564  1.0000
  H   H20       1.0  0.26111  0.47287  0.71435  1.0000
  C   C1        1.0  0.33993  0.00594  0.84967  1.0000
  C   C2        1.0  0.66008  0.99407  0.15034  1.0000
  C   C3        1.0  0.35448  0.85798  0.84926  1.0000
  C   C4        1.0  0.64554  0.14203  0.15074  1.0000
  C   C5        1.0  0.32502  0.80263  0.92701  1.0000
  C   C6        1.0  0.67501  0.19738  0.07299  1.0000
  C   C7        1.0  0.27408  0.89362  0.00003  1.0000
  C   C8        1.0  0.72593  0.10638  0.99997  1.0000
  C   C9        1.0  0.25981  0.04037  0.99485  1.0000
  C   C10       1.0  0.74018  0.95962  0.00516  1.0000
  C   C11       1.0  0.37421  0.07819  0.77084  1.0000
  C   C12       1.0  0.62578  0.92181  0.22917  1.0000
  C   C13       1.0  0.34519  0.64578  0.93045  1.0000
  C   C14       1.0  0.65482  0.35423  0.06954  1.0000
  C   C15       1.0  0.20580  0.14857  0.07165  1.0000
  C   C16       1.0  0.79418  0.85143  0.92836  1.0000
  C   C17       1.0  0.81368  0.06030  0.64494  1.0000
  C   C18       1.0  0.18632  0.93969  0.35506  1.0000
  C   C19       1.0  0.83531  0.88408  0.54021  1.0000
  C   C20       1.0  0.16468  0.11591  0.45979  1.0000
  C   C21       1.0  0.84170  0.17846  0.72627  1.0000
  C   C22       1.0  0.15830  0.82153  0.27372  1.0000
  C   C23       1.0  0.97840  0.19348  0.79405  1.0000
  C   C24       1.0  0.02159  0.80651  0.20594  1.0000
  C   C25       1.0  0.92014  0.41828  0.86542  1.0000
  C   C26       1.0  0.07985  0.58171  0.13458  1.0000
  C   C27       1.0  0.77326  0.39605  0.80318  1.0000
  C   C28       1.0  0.22673  0.60394  0.19682  1.0000
  C   C29       1.0  0.88849  0.76306  0.48025  1.0000
  C   C30       1.0  0.11152  0.23694  0.51975  1.0000
  C   C31       1.0  0.04610  0.72063  0.49762  1.0000
  C   C32       1.0  0.95391  0.27938  0.50238  1.0000
  C   C33       1.0  0.97927  0.53581  0.36731  1.0000
  C   C34       1.0  0.02074  0.46418  0.63269  1.0000
  C   C35       1.0  0.82489  0.58044  0.34798  1.0000
  C   C36       1.0  0.17512  0.41955  0.65202  1.0000
  N   N1        1.0  0.29682  0.09318  0.92164  1.0000
  N   N2        1.0  0.70318  0.90682  0.07836  1.0000
  N   N3        1.0  0.67844  0.04509  0.58120  1.0000
  N   N4        1.0  0.32155  0.95490  0.41881  1.0000
  N   N5        1.0  0.69132  0.93133  0.51457  1.0000
  N   N6        1.0  0.30868  0.06867  0.48543  1.0000
  N   N7        1.0  0.91709  0.96228  0.62184  1.0000
  N   N8        1.0  0.08290  0.03771  0.37816  1.0000
  N   N9        1.0  0.73636  0.27843  0.73274  1.0000
  N   N10       1.0  0.26364  0.72156  0.26726  1.0000
  N   N11       1.0  0.02038  0.31535  0.86141  1.0000
  N   N12       1.0  0.97962  0.68465  0.13859  1.0000
  N   N13       1.0  0.78080  0.69383  0.40399  1.0000
  N   N14       1.0  0.21921  0.30616  0.59600  1.0000
  N   N15       1.0  0.08986  0.60802  0.44115  1.0000
  N   N16       1.0  0.91015  0.39198  0.55885  1.0000
  O   O1        1.0  0.57958  0.40702  0.55578  1.0000
  O   O2        1.0  0.42043  0.59298  0.44422  1.0000
  O   O3        1.0  0.37866  0.21967  0.78103  1.0000
  O   O4        1.0  0.62133  0.78033  0.21897  1.0000
  O   O5        1.0  0.39787  0.99514  0.69836  1.0000
  O   O6        1.0  0.60212  0.00487  0.30164  1.0000
  O   O7        1.0  0.32933  0.55030  0.85661  1.0000
  O   O8        1.0  0.67067  0.44970  0.14338  1.0000
  O   O9        1.0  0.37279  0.61212  0.00832  1.0000
  O   O10       1.0  0.62722  0.38787  0.99167  1.0000
  O   O11       1.0  0.14387  0.09284  0.13253  1.0000
  O   O12       1.0  0.85610  0.90715  0.86746  1.0000
  O   O13       1.0  0.22959  0.28772  0.06607  1.0000
  O   O14       1.0  0.77042  0.71228  0.93394  1.0000
