data_image0
_chemical_formula_structural       Zn2H28C48N8Cl4O8
_chemical_formula_sum              "Zn2 H28 C48 N8 Cl4 O8"
_cell_length_a       7.72021
_cell_length_b       12.2841
_cell_length_c       12.7343
_cell_angle_alpha    104.938
_cell_angle_beta     91.0999
_cell_angle_gamma    88.5886

_space_group_name_H-M_alt    "P 1"
_space_group_IT_number       1

loop_
  _space_group_symop_operation_xyz
  'x, y, z'

loop_
  _atom_site_type_symbol
  _atom_site_label
  _atom_site_symmetry_multiplicity
  _atom_site_fract_x
  _atom_site_fract_y
  _atom_site_fract_z
  _atom_site_occupancy
  Zn  Zn1       1.0  0.38928  0.95973  0.29229  1.0000
  Zn  Zn2       1.0  0.61072  0.04027  0.70772  1.0000
  H   H1        1.0  0.99403  0.94314  0.29159  1.0000
  H   H2        1.0  0.00597  0.05685  0.70840  1.0000
  H   H3        1.0  0.33916  0.10272  0.13775  1.0000
  H   H4        1.0  0.66084  0.89728  0.86224  1.0000
  H   H5        1.0  0.78743  0.14240  0.08422  1.0000
  H   H6        1.0  0.21258  0.85759  0.91577  1.0000
  H   H7        1.0  0.38642  0.41305  0.44343  1.0000
  H   H8        1.0  0.61356  0.58695  0.55657  1.0000
  H   H9        1.0  0.20629  0.53100  0.75929  1.0000
  H   H10       1.0  0.79370  0.46901  0.24072  1.0000
  H   H11       1.0  0.26303  0.17145  0.62114  1.0000
  H   H12       1.0  0.73699  0.82856  0.37889  1.0000
  H   H13       1.0  0.46829  0.86443  0.02884  1.0000
  H   H14       1.0  0.53170  0.13558  0.97116  1.0000
  H   H15       1.0  0.43659  0.67967  0.88762  1.0000
  H   H16       1.0  0.56342  0.32033  0.11238  1.0000
  H   H17       1.0  0.33217  0.51200  0.94607  1.0000
  H   H18       1.0  0.66784  0.48800  0.05393  1.0000
  H   H19       1.0  0.24464  0.43020  0.10034  1.0000
  H   H20       1.0  0.75535  0.56980  0.89966  1.0000
  H   H21       1.0  0.18286  0.45868  0.29512  1.0000
  H   H22       1.0  0.81714  0.54132  0.70487  1.0000
  H   H23       1.0  0.15658  0.59195  0.48438  1.0000
  H   H24       1.0  0.84342  0.40805  0.51562  1.0000
  H   H25       1.0  0.17911  0.78807  0.60202  1.0000
  H   H26       1.0  0.82088  0.21192  0.39797  1.0000
  H   H27       1.0  0.27405  0.94165  0.52033  1.0000
  H   H28       1.0  0.72595  0.05835  0.47967  1.0000
  C   C1        1.0  0.68479  0.00989  0.20534  1.0000
  C   C2        1.0  0.31520  0.99012  0.79464  1.0000
  C   C3        1.0  0.86854  0.04015  0.19072  1.0000
  C   C4        1.0  0.13147  0.95984  0.80927  1.0000
  C   C5        1.0  0.01122  0.99782  0.23753  1.0000
  C   C6        1.0  0.98877  0.00218  0.76246  1.0000
  C   C7        1.0  0.20407  0.08811  0.15151  1.0000
  C   C8        1.0  0.79592  0.91188  0.84849  1.0000
  C   C9        1.0  0.06670  0.13509  0.10448  1.0000
  C   C10       1.0  0.93330  0.86491  0.89551  1.0000
  C   C11       1.0  0.89743  0.11031  0.12250  1.0000
  C   C12       1.0  0.10256  0.88968  0.87749  1.0000
  C   C13       1.0  0.37006  0.18817  0.41957  1.0000
  C   C14       1.0  0.62993  0.81183  0.58043  1.0000
  C   C15       1.0  0.32640  0.28130  0.51939  1.0000
  C   C16       1.0  0.67360  0.71870  0.48062  1.0000
  C   C17       1.0  0.33897  0.39418  0.51693  1.0000
  C   C18       1.0  0.66101  0.60582  0.48307  1.0000
  C   C19       1.0  0.24219  0.45934  0.69193  1.0000
  C   C20       1.0  0.75780  0.54066  0.30807  1.0000
  C   C21       1.0  0.22925  0.34914  0.70183  1.0000
  C   C22       1.0  0.77076  0.65087  0.29819  1.0000
  C   C23       1.0  0.27123  0.25804  0.61502  1.0000
  C   C24       1.0  0.72879  0.74196  0.38499  1.0000
  C   C25       1.0  0.42272  0.78952  0.05020  1.0000
  C   C26       1.0  0.57727  0.21048  0.94981  1.0000
  C   C27       1.0  0.40464  0.68576  0.97203  1.0000
  C   C28       1.0  0.59536  0.31425  0.02797  1.0000
  C   C29       1.0  0.34780  0.59361  0.00428  1.0000
  C   C30       1.0  0.65221  0.40640  0.99572  1.0000
  C   C31       1.0  0.31013  0.60480  0.11478  1.0000
  C   C32       1.0  0.68987  0.39521  0.88522  1.0000
  C   C33       1.0  0.32897  0.71324  0.18701  1.0000
  C   C34       1.0  0.67104  0.28676  0.81299  1.0000
  C   C35       1.0  0.25653  0.51338  0.15634  1.0000
  C   C36       1.0  0.74348  0.48662  0.84365  1.0000
  C   C37       1.0  0.22149  0.52930  0.26414  1.0000
  C   C38       1.0  0.77851  0.47070  0.73586  1.0000
  C   C39       1.0  0.23303  0.63855  0.33859  1.0000
  C   C40       1.0  0.76697  0.36145  0.66140  1.0000
  C   C41       1.0  0.28636  0.73080  0.29999  1.0000
  C   C42       1.0  0.71365  0.26919  0.70001  1.0000
  C   C43       1.0  0.19324  0.66057  0.45004  1.0000
  C   C44       1.0  0.80675  0.33943  0.54996  1.0000
  C   C45       1.0  0.20619  0.76895  0.51560  1.0000
  C   C46       1.0  0.79380  0.23105  0.48440  1.0000
  C   C47       1.0  0.25953  0.85564  0.47066  1.0000
  C   C48       1.0  0.74047  0.14435  0.52934  1.0000
  N   N1        1.0  0.17465  0.02029  0.21655  1.0000
  N   N2        1.0  0.82536  0.97971  0.78345  1.0000
  N   N3        1.0  0.29703  0.48166  0.60062  1.0000
  N   N4        1.0  0.70295  0.51834  0.39938  1.0000
  N   N5        1.0  0.38492  0.80260  0.15429  1.0000
  N   N6        1.0  0.61508  0.19740  0.84571  1.0000
  N   N7        1.0  0.29901  0.83667  0.36580  1.0000
  N   N8        1.0  0.70100  0.16332  0.63420  1.0000
  Cl  Cl1       1.0  0.10977  0.22156  0.02100  1.0000
  Cl  Cl2       1.0  0.89023  0.77843  0.97899  1.0000
  Cl  Cl3       1.0  0.15645  0.32618  0.82214  1.0000
  Cl  Cl4       1.0  0.84357  0.67384  0.17788  1.0000
  O   O1        1.0  0.65297  0.97130  0.28792  1.0000
  O   O2        1.0  0.34703  0.02870  0.71207  1.0000
  O   O3        1.0  0.57527  0.02392  0.13597  1.0000
  O   O4        1.0  0.42474  0.97608  0.86403  1.0000
  O   O5        1.0  0.35309  0.08723  0.43070  1.0000
  O   O6        1.0  0.64691  0.91277  0.56931  1.0000
  O   O7        1.0  0.41667  0.21431  0.33604  1.0000
  O   O8        1.0  0.58332  0.78568  0.66397  1.0000
