data_image0
_chemical_formula_structural       Mg2H16C16O16
_chemical_formula_sum              "Mg2 H16 C16 O16"
_cell_length_a       6.92774
_cell_length_b       8.17603
_cell_length_c       9.32814
_cell_angle_alpha    63.9934
_cell_angle_beta     82.6746
_cell_angle_gamma    73.0898

_space_group_name_H-M_alt    "P 1"
_space_group_IT_number       1

loop_
  _space_group_symop_operation_xyz
  'x, y, z'

loop_
  _atom_site_type_symbol
  _atom_site_label
  _atom_site_symmetry_multiplicity
  _atom_site_fract_x
  _atom_site_fract_y
  _atom_site_fract_z
  _atom_site_occupancy
  Mg  Mg1       1.0  0.25006  0.31019  0.37957  1.0000
  Mg  Mg2       1.0  0.74994  0.68980  0.62043  1.0000
  H   H1        1.0  0.79807  0.33226  0.92400  1.0000
  H   H2        1.0  0.70201  0.74377  0.92400  1.0000
  H   H3        1.0  0.20193  0.66774  0.07601  1.0000
  H   H4        1.0  0.29798  0.25624  0.07599  1.0000
  H   H5        1.0  0.13532  0.99602  0.66236  1.0000
  H   H6        1.0  0.36452  0.34178  0.66231  1.0000
  H   H7        1.0  0.86469  0.00397  0.33764  1.0000
  H   H8        1.0  0.63547  0.65823  0.33768  1.0000
  H   H9        1.0  0.90728  0.49412  0.21298  1.0000
  H   H10       1.0  0.59282  0.29301  0.21286  1.0000
  H   H11       1.0  0.09272  0.50588  0.78701  1.0000
  H   H12       1.0  0.40719  0.70698  0.78715  1.0000
  H   H13       1.0  0.96846  0.28893  0.22521  1.0000
  H   H14       1.0  0.53170  0.48581  0.22534  1.0000
  H   H15       1.0  0.03155  0.71107  0.77479  1.0000
  H   H16       1.0  0.46830  0.51419  0.77466  1.0000
  C   C1        1.0  0.94886  0.26305  0.66561  1.0000
  C   C2        1.0  0.55114  0.07145  0.66563  1.0000
  C   C3        1.0  0.05115  0.73695  0.33440  1.0000
  C   C4        1.0  0.44885  0.92855  0.33436  1.0000
  C   C5        1.0  0.97140  0.12708  0.83779  1.0000
  C   C6        1.0  0.52855  0.03513  0.83780  1.0000
  C   C7        1.0  0.02860  0.87292  0.16222  1.0000
  C   C8        1.0  0.47145  0.96487  0.16220  1.0000
  C   C9        1.0  0.88650  0.18703  0.95647  1.0000
  C   C10       1.0  0.61364  0.85648  0.95651  1.0000
  C   C11       1.0  0.11350  0.81296  0.04354  1.0000
  C   C12       1.0  0.38636  0.14353  0.04348  1.0000
  C   C13       1.0  0.08528  0.93743  0.88330  1.0000
  C   C14       1.0  0.41468  0.17926  0.88329  1.0000
  C   C15       1.0  0.91473  0.06257  0.11670  1.0000
  C   C16       1.0  0.58531  0.82075  0.11670  1.0000
  O   O1        1.0  0.05103  0.19966  0.56562  1.0000
  O   O2        1.0  0.44895  0.23482  0.56560  1.0000
  O   O3        1.0  0.94898  0.80034  0.43439  1.0000
  O   O4        1.0  0.55106  0.76519  0.43439  1.0000
  O   O5        1.0  0.83844  0.42833  0.62352  1.0000
  O   O6        1.0  0.66143  0.94818  0.62367  1.0000
  O   O7        1.0  0.16156  0.57168  0.37649  1.0000
  O   O8        1.0  0.33855  0.05182  0.37633  1.0000
  O   O9        1.0  0.16650  0.87335  0.76920  1.0000
  O   O10       1.0  0.33337  0.35747  0.76913  1.0000
  O   O11       1.0  0.83350  0.12664  0.23081  1.0000
  O   O12       1.0  0.66662  0.64254  0.23086  1.0000
  O   O13       1.0  0.02606  0.39129  0.21388  1.0000
  O   O14       1.0  0.47405  0.39493  0.21382  1.0000
  O   O15       1.0  0.97394  0.60871  0.78612  1.0000
  O   O16       1.0  0.52596  0.60505  0.78618  1.0000
