data_image0
_chemical_formula_structural       Na4H8C8N20O8
_chemical_formula_sum              "Na4 H8 C8 N20 O8"
_cell_length_a       3.60564
_cell_length_b       9.98201
_cell_length_c       15.9438
_cell_angle_alpha    90.0001
_cell_angle_beta     89.9999
_cell_angle_gamma    97.8301

_space_group_name_H-M_alt    "P 1"
_space_group_IT_number       1

loop_
  _space_group_symop_operation_xyz
  'x, y, z'

loop_
  _atom_site_type_symbol
  _atom_site_label
  _atom_site_symmetry_multiplicity
  _atom_site_fract_x
  _atom_site_fract_y
  _atom_site_fract_z
  _atom_site_occupancy
  Na  Na1       1.0  0.70184  0.90282  0.08243  1.0000
  Na  Na2       1.0  0.29817  0.59719  0.58243  1.0000
  Na  Na3       1.0  0.29817  0.09718  0.91757  1.0000
  Na  Na4       1.0  0.70184  0.40281  0.41757  1.0000
  H   H1        1.0  0.18033  0.93030  0.22374  1.0000
  H   H2        1.0  0.81966  0.56970  0.72374  1.0000
  H   H3        1.0  0.81967  0.06970  0.77626  1.0000
  H   H4        1.0  0.18033  0.43030  0.27626  1.0000
  H   H5        1.0  0.20121  0.06935  0.17458  1.0000
  H   H6        1.0  0.79879  0.43065  0.67458  1.0000
  H   H7        1.0  0.79878  0.93065  0.82542  1.0000
  H   H8        1.0  0.20122  0.56935  0.32542  1.0000
  C   C1        1.0  0.14636  0.57086  0.88261  1.0000
  C   C2        1.0  0.85364  0.92914  0.38261  1.0000
  C   C3        1.0  0.85364  0.42914  0.11739  1.0000
  C   C4        1.0  0.14636  0.07086  0.61739  1.0000
  C   C5        1.0  0.21072  0.43535  0.87224  1.0000
  C   C6        1.0  0.78928  0.06465  0.37224  1.0000
  C   C7        1.0  0.78928  0.56465  0.12775  1.0000
  C   C8        1.0  0.21071  0.93535  0.62776  1.0000
  N   N1        1.0  0.25264  0.64521  0.95153  1.0000
  N   N2        1.0  0.74736  0.85479  0.45153  1.0000
  N   N3        1.0  0.74737  0.35478  0.04847  1.0000
  N   N4        1.0  0.25264  0.14521  0.54847  1.0000
  N   N5        1.0  0.14414  0.76366  0.93167  1.0000
  N   N6        1.0  0.85586  0.73634  0.43167  1.0000
  N   N7        1.0  0.85585  0.23634  0.06833  1.0000
  N   N8        1.0  0.14415  0.26366  0.56833  1.0000
  N   N9        1.0  0.97965  0.76384  0.85510  1.0000
  N   N10       1.0  0.02035  0.73616  0.35510  1.0000
  N   N11       1.0  0.02035  0.23617  0.14490  1.0000
  N   N12       1.0  0.97966  0.26384  0.64490  1.0000
  N   N13       1.0  0.98210  0.64087  0.82404  1.0000
  N   N14       1.0  0.01789  0.85914  0.32404  1.0000
  N   N15       1.0  0.01789  0.35913  0.17596  1.0000
  N   N16       1.0  0.98211  0.14086  0.67596  1.0000
  N   N17       1.0  0.27020  0.32442  0.86344  1.0000
  N   N18       1.0  0.72977  0.17558  0.36344  1.0000
  N   N19       1.0  0.72980  0.67558  0.13656  1.0000
  N   N20       1.0  0.27021  0.82442  0.63656  1.0000
  O   O1        1.0  0.19055  0.86798  0.97943  1.0000
  O   O2        1.0  0.80947  0.63202  0.47943  1.0000
  O   O3        1.0  0.80946  0.13202  0.02057  1.0000
  O   O4        1.0  0.19055  0.36799  0.52057  1.0000
  O   O5        1.0  0.24532  0.97456  0.16890  1.0000
  O   O6        1.0  0.75468  0.52545  0.66890  1.0000
  O   O7        1.0  0.75468  0.02544  0.83110  1.0000
  O   O8        1.0  0.24531  0.47455  0.33110  1.0000
