data_image0
_chemical_formula_structural       Na4H44C16O20
_chemical_formula_sum              "Na4 H44 C16 O20"
_cell_length_a       5.90439
_cell_length_b       11.7545
_cell_length_c       12.0812
_cell_angle_alpha    65.1853
_cell_angle_beta     75.5229
_cell_angle_gamma    75.0837

_space_group_name_H-M_alt    "P 1"
_space_group_IT_number       1

loop_
  _space_group_symop_operation_xyz
  'x, y, z'

loop_
  _atom_site_type_symbol
  _atom_site_label
  _atom_site_symmetry_multiplicity
  _atom_site_fract_x
  _atom_site_fract_y
  _atom_site_fract_z
  _atom_site_occupancy
  Na  Na1       1.0  0.88638  0.73003  0.76127  1.0000
  Na  Na2       1.0  0.37707  0.76962  0.73892  1.0000
  Na  Na3       1.0  0.11363  0.26997  0.23873  1.0000
  Na  Na4       1.0  0.62293  0.23037  0.26107  1.0000
  H   H1        1.0  0.46766  0.75754  0.04534  1.0000
  H   H2        1.0  0.27501  0.74263  0.45536  1.0000
  H   H3        1.0  0.53228  0.24246  0.95469  1.0000
  H   H4        1.0  0.72506  0.25739  0.54462  1.0000
  H   H5        1.0  0.00855  0.96868  0.61542  1.0000
  H   H6        1.0  0.59466  0.53153  0.88471  1.0000
  H   H7        1.0  0.99144  0.03134  0.38459  1.0000
  H   H8        1.0  0.40531  0.46847  0.11528  1.0000
  H   H9        1.0  0.11015  0.88375  0.53153  1.0000
  H   H10       1.0  0.52534  0.61606  0.96891  1.0000
  H   H11       1.0  0.88984  0.11627  0.46848  1.0000
  H   H12       1.0  0.47465  0.38394  0.03109  1.0000
  H   H13       1.0  0.26353  0.59081  0.64816  1.0000
  H   H14       1.0  0.49612  0.90798  0.85305  1.0000
  H   H15       1.0  0.73652  0.40922  0.35181  1.0000
  H   H16       1.0  0.50388  0.09198  0.14697  1.0000
  H   H17       1.0  0.37323  0.50756  0.77290  1.0000
  H   H18       1.0  0.64845  0.99133  0.72860  1.0000
  H   H19       1.0  0.62675  0.49245  0.22708  1.0000
  H   H20       1.0  0.35150  0.00866  0.27142  1.0000
  H   H21       1.0  0.80462  0.88566  0.98384  1.0000
  H   H22       1.0  0.68072  0.61433  0.51654  1.0000
  H   H23       1.0  0.19533  0.11432  0.01616  1.0000
  H   H24       1.0  0.31936  0.38565  0.48347  1.0000
  H   H25       1.0  0.05025  0.94596  0.86944  1.0000
  H   H26       1.0  0.87094  0.55409  0.63097  1.0000
  H   H27       1.0  0.94971  0.05403  0.13057  1.0000
  H   H28       1.0  0.12917  0.44593  0.36901  1.0000
  H   H29       1.0  0.04777  0.86022  0.12416  1.0000
  H   H30       1.0  0.04224  0.63956  0.37635  1.0000
  H   H31       1.0  0.95217  0.13977  0.87586  1.0000
  H   H32       1.0  0.95784  0.36045  0.62364  1.0000
  H   H33       1.0  0.06447  0.63708  0.20601  1.0000
  H   H34       1.0  0.91355  0.86289  0.29432  1.0000
  H   H35       1.0  0.93549  0.36291  0.79400  1.0000
  H   H36       1.0  0.08649  0.13712  0.70567  1.0000
  H   H37       1.0  0.11677  0.56296  0.00544  1.0000
  H   H38       1.0  0.68462  0.93713  0.49486  1.0000
  H   H39       1.0  0.88321  0.43702  0.99458  1.0000
  H   H40       1.0  0.31538  0.06288  0.50511  1.0000
  H   H41       1.0  0.84557  0.64152  0.06868  1.0000
  H   H42       1.0  0.55855  0.85868  0.43155  1.0000
  H   H43       1.0  0.15438  0.35847  0.93132  1.0000
  H   H44       1.0  0.44149  0.14131  0.56843  1.0000
  C   C1        1.0  0.99628  0.86363  0.95025  1.0000
  C   C2        1.0  0.81550  0.63640  0.55009  1.0000
  C   C3        1.0  0.00367  0.13636  0.04976  1.0000
  C   C4        1.0  0.18457  0.36360  0.44990  1.0000
  C   C5        1.0  0.13941  0.81956  0.05438  1.0000
  C   C6        1.0  0.02025  0.68035  0.44609  1.0000
  C   C7        1.0  0.86053  0.18043  0.94564  1.0000
  C   C8        1.0  0.97981  0.31966  0.55390  1.0000
  C   C9        1.0  0.16276  0.66855  0.11057  1.0000
  C   C10       1.0  0.94639  0.83144  0.38977  1.0000
  C   C11       1.0  0.83719  0.33145  0.88945  1.0000
  C   C12       1.0  0.05365  0.16857  0.61022  1.0000
  C   C13       1.0  0.03306  0.64748  0.02674  1.0000
  C   C14       1.0  0.70930  0.85262  0.47352  1.0000
  C   C15       1.0  0.96690  0.35251  0.97327  1.0000
  C   C16       1.0  0.29073  0.14738  0.52646  1.0000
  O   O1        1.0  0.04236  0.75763  0.91179  1.0000
  O   O2        1.0  0.71366  0.74245  0.58848  1.0000
  O   O3        1.0  0.95762  0.24236  0.08823  1.0000
  O   O4        1.0  0.28638  0.25756  0.41150  1.0000
  O   O5        1.0  0.37474  0.84733  0.01186  1.0000
  O   O6        1.0  0.24014  0.65275  0.48889  1.0000
  O   O7        1.0  0.62520  0.15267  0.98815  1.0000
  O   O8        1.0  0.75994  0.34727  0.51108  1.0000
  O   O9        1.0  0.40386  0.61236  0.10703  1.0000
  O   O10       1.0  0.12640  0.88755  0.39325  1.0000
  O   O11       1.0  0.59610  0.38764  0.89298  1.0000
  O   O12       1.0  0.87362  0.11247  0.60675  1.0000
  O   O13       1.0  0.09820  0.88256  0.61712  1.0000
  O   O14       1.0  0.59925  0.61728  0.88324  1.0000
  O   O15       1.0  0.90177  0.11745  0.38289  1.0000
  O   O16       1.0  0.40075  0.38271  0.11676  1.0000
  O   O17       1.0  0.25222  0.58052  0.73530  1.0000
  O   O18       1.0  0.56300  0.91874  0.76572  1.0000
  O   O19       1.0  0.74779  0.41949  0.26468  1.0000
  O   O20       1.0  0.43696  0.08125  0.23430  1.0000
