data_image0
_chemical_formula_structural       Cs4H8C4O12
_chemical_formula_sum              "Cs4 H8 C4 O12"
_cell_length_a       6.22668
_cell_length_b       6.13435
_cell_length_c       11.001
_cell_angle_alpha    90.0012
_cell_angle_beta     89.9995
_cell_angle_gamma    110.744

_space_group_name_H-M_alt    "P 1"
_space_group_IT_number       1

loop_
  _space_group_symop_operation_xyz
  'x, y, z'

loop_
  _atom_site_type_symbol
  _atom_site_label
  _atom_site_symmetry_multiplicity
  _atom_site_fract_x
  _atom_site_fract_y
  _atom_site_fract_z
  _atom_site_occupancy
  Cs  Cs1       1.0  0.19878  0.88082  0.11459  1.0000
  Cs  Cs2       1.0  0.30122  0.11919  0.61459  1.0000
  Cs  Cs3       1.0  0.80124  0.11920  0.88541  1.0000
  Cs  Cs4       1.0  0.69876  0.88080  0.38542  1.0000
  H   H1        1.0  0.88272  0.33153  0.14515  1.0000
  H   H2        1.0  0.61728  0.66849  0.64515  1.0000
  H   H3        1.0  0.11727  0.66849  0.85485  1.0000
  H   H4        1.0  0.38272  0.33150  0.35485  1.0000
  H   H5        1.0  0.07391  0.33980  0.24095  1.0000
  H   H6        1.0  0.42609  0.66020  0.74095  1.0000
  H   H7        1.0  0.92610  0.66021  0.75905  1.0000
  H   H8        1.0  0.57391  0.33980  0.25905  1.0000
  C   C1        1.0  0.07355  0.52401  0.43993  1.0000
  C   C2        1.0  0.42644  0.47597  0.93994  1.0000
  C   C3        1.0  0.92644  0.47595  0.56006  1.0000
  C   C4        1.0  0.57355  0.52405  0.06005  1.0000
  O   O1        1.0  0.13645  0.72463  0.39402  1.0000
  O   O2        1.0  0.36354  0.27536  0.89403  1.0000
  O   O3        1.0  0.86354  0.27533  0.60597  1.0000
  O   O4        1.0  0.63647  0.72466  0.10598  1.0000
  O   O5        1.0  0.11721  0.34956  0.39703  1.0000
  O   O6        1.0  0.38278  0.65040  0.89704  1.0000
  O   O7        1.0  0.88278  0.65043  0.60297  1.0000
  O   O8        1.0  0.61723  0.34959  0.10297  1.0000
  O   O9        1.0  0.03286  0.31110  0.15352  1.0000
  O   O10       1.0  0.46716  0.68892  0.65353  1.0000
  O   O11       1.0  0.96719  0.68893  0.84648  1.0000
  O   O12       1.0  0.53280  0.31108  0.34647  1.0000
