data_image0
_chemical_formula_structural       Pr4H28C28S4O32
_chemical_formula_sum              "Pr4 H28 C28 S4 O32"
_cell_length_a       7.01835
_cell_length_b       9.50202
_cell_length_c       14.0553
_cell_angle_alpha    90
_cell_angle_beta     90
_cell_angle_gamma    90.0002

_space_group_name_H-M_alt    "P 1"
_space_group_IT_number       1

loop_
  _space_group_symop_operation_xyz
  'x, y, z'

loop_
  _atom_site_type_symbol
  _atom_site_label
  _atom_site_symmetry_multiplicity
  _atom_site_fract_x
  _atom_site_fract_y
  _atom_site_fract_z
  _atom_site_occupancy
  Pr  Pr1       1.0  0.03732  0.68723  0.12428  1.0000
  Pr  Pr2       1.0  0.46268  0.31276  0.62428  1.0000
  Pr  Pr3       1.0  0.96267  0.18724  0.37572  1.0000
  Pr  Pr4       1.0  0.53732  0.81277  0.87572  1.0000
  H   H1        1.0  0.52266  0.08466  0.17996  1.0000
  H   H2        1.0  0.97734  0.91534  0.67996  1.0000
  H   H3        1.0  0.47734  0.58466  0.32005  1.0000
  H   H4        1.0  0.02267  0.41533  0.82004  1.0000
  H   H5        1.0  0.52674  0.33310  0.21832  1.0000
  H   H6        1.0  0.97326  0.66690  0.71832  1.0000
  H   H7        1.0  0.47326  0.83310  0.28168  1.0000
  H   H8        1.0  0.02675  0.16690  0.78168  1.0000
  H   H9        1.0  0.53521  0.43196  0.91813  1.0000
  H   H10       1.0  0.96478  0.56804  0.41814  1.0000
  H   H11       1.0  0.46478  0.93196  0.58186  1.0000
  H   H12       1.0  0.03521  0.06804  0.08187  1.0000
  H   H13       1.0  0.33115  0.93105  0.11491  1.0000
  H   H14       1.0  0.16885  0.06895  0.61491  1.0000
  H   H15       1.0  0.66885  0.43105  0.38509  1.0000
  H   H16       1.0  0.83115  0.56895  0.88509  1.0000
  H   H17       1.0  0.69434  0.91570  0.09755  1.0000
  H   H18       1.0  0.80565  0.08430  0.59755  1.0000
  H   H19       1.0  0.30565  0.41570  0.40245  1.0000
  H   H20       1.0  0.19435  0.58430  0.90245  1.0000
  H   H21       1.0  0.24250  0.97057  0.21653  1.0000
  H   H22       1.0  0.25750  0.02942  0.71654  1.0000
  H   H23       1.0  0.75749  0.47058  0.28346  1.0000
  H   H24       1.0  0.74250  0.52943  0.78347  1.0000
  H   H25       1.0  0.81964  0.93184  0.19670  1.0000
  H   H26       1.0  0.68036  0.06816  0.69670  1.0000
  H   H27       1.0  0.18036  0.43184  0.30330  1.0000
  H   H28       1.0  0.31964  0.56816  0.80330  1.0000
  C   C1        1.0  0.53278  0.17827  0.84908  1.0000
  C   C2        1.0  0.96722  0.82172  0.34908  1.0000
  C   C3        1.0  0.46722  0.67828  0.65092  1.0000
  C   C4        1.0  0.03278  0.32173  0.15092  1.0000
  C   C5        1.0  0.52630  0.30149  0.14389  1.0000
  C   C6        1.0  0.97370  0.69851  0.64389  1.0000
  C   C7        1.0  0.47370  0.80149  0.35611  1.0000
  C   C8        1.0  0.02630  0.19851  0.85611  1.0000
  C   C9        1.0  0.52367  0.16038  0.12184  1.0000
  C   C10       1.0  0.97633  0.83963  0.62184  1.0000
  C   C11       1.0  0.47633  0.66037  0.37816  1.0000
  C   C12       1.0  0.02367  0.33963  0.87816  1.0000
  C   C13       1.0  0.52637  0.10983  0.02679  1.0000
  C   C14       1.0  0.97363  0.89017  0.52679  1.0000
  C   C15       1.0  0.47364  0.60983  0.47321  1.0000
  C   C16       1.0  0.02637  0.39017  0.97321  1.0000
  C   C17       1.0  0.53097  0.35575  0.97570  1.0000
  C   C18       1.0  0.96903  0.64425  0.47570  1.0000
  C   C19       1.0  0.46903  0.85575  0.52430  1.0000
  C   C20       1.0  0.03097  0.14425  0.02430  1.0000
  C   C21       1.0  0.52734  0.21210  0.95231  1.0000
  C   C22       1.0  0.97266  0.78792  0.45232  1.0000
  C   C23       1.0  0.47267  0.71209  0.54768  1.0000
  C   C24       1.0  0.02734  0.28790  0.04769  1.0000
  C   C25       1.0  0.53416  0.40025  0.06959  1.0000
  C   C26       1.0  0.96584  0.59976  0.56960  1.0000
  C   C27       1.0  0.46584  0.90024  0.43040  1.0000
  C   C28       1.0  0.03416  0.09975  0.93041  1.0000
  S   S1        1.0  0.56147  0.57816  0.10026  1.0000
  S   S2        1.0  0.93853  0.42184  0.60026  1.0000
  S   S3        1.0  0.43852  0.07816  0.39974  1.0000
  S   S4        1.0  0.06147  0.92184  0.89974  1.0000
  O   O1        1.0  0.71358  0.58070  0.17333  1.0000
  O   O2        1.0  0.78642  0.41930  0.67333  1.0000
  O   O3        1.0  0.28642  0.08070  0.32667  1.0000
  O   O4        1.0  0.21358  0.91930  0.82667  1.0000
  O   O5        1.0  0.62260  0.65904  0.01596  1.0000
  O   O6        1.0  0.87741  0.34096  0.51597  1.0000
  O   O7        1.0  0.37741  0.15904  0.48403  1.0000
  O   O8        1.0  0.12260  0.84096  0.98404  1.0000
  O   O9        1.0  0.38090  0.63075  0.13913  1.0000
  O   O10       1.0  0.11910  0.36925  0.63914  1.0000
  O   O11       1.0  0.61910  0.13075  0.36086  1.0000
  O   O12       1.0  0.88090  0.86925  0.86087  1.0000
  O   O13       1.0  0.49661  0.27831  0.79125  1.0000
  O   O14       1.0  0.00339  0.72170  0.29126  1.0000
  O   O15       1.0  0.50339  0.77830  0.70874  1.0000
  O   O16       1.0  0.99660  0.22169  0.20875  1.0000
  O   O17       1.0  0.57675  0.05450  0.82002  1.0000
  O   O18       1.0  0.92325  0.94551  0.32002  1.0000
  O   O19       1.0  0.42325  0.55449  0.67998  1.0000
  O   O20       1.0  0.07675  0.44550  0.17998  1.0000
  O   O21       1.0  0.52539  0.97102  0.01395  1.0000
  O   O22       1.0  0.97461  0.02898  0.51394  1.0000
  O   O23       1.0  0.47462  0.47102  0.48605  1.0000
  O   O24       1.0  0.02539  0.52898  0.98605  1.0000
  O   O25       1.0  0.80393  0.88088  0.13595  1.0000
  O   O26       1.0  0.69607  0.11912  0.63595  1.0000
  O   O27       1.0  0.19606  0.38089  0.36405  1.0000
  O   O28       1.0  0.30393  0.61912  0.86405  1.0000
  O   O29       1.0  0.23771  0.90320  0.16362  1.0000
  O   O30       1.0  0.26228  0.09680  0.66362  1.0000
  O   O31       1.0  0.76228  0.40320  0.33638  1.0000
  O   O32       1.0  0.73772  0.59680  0.83638  1.0000
