data_image0
_chemical_formula_structural       Fe2H24C28N4O12
_chemical_formula_sum              "Fe2 H24 C28 N4 O12"
_cell_length_a       4.87797
_cell_length_b       10.9868
_cell_length_c       12.621
_cell_angle_alpha    89.4946
_cell_angle_beta     90.0179
_cell_angle_gamma    102.866

_space_group_name_H-M_alt    "P 1"
_space_group_IT_number       1

loop_
  _space_group_symop_operation_xyz
  'x, y, z'

loop_
  _atom_site_type_symbol
  _atom_site_label
  _atom_site_symmetry_multiplicity
  _atom_site_fract_x
  _atom_site_fract_y
  _atom_site_fract_z
  _atom_site_occupancy
  Fe  Fe1       1.0  0.50000  0.00000  0.00000  1.0000
  Fe  Fe2       1.0  0.50000  0.00000  0.50000  1.0000
  H   H1        1.0  0.88240  0.09581  0.32339  1.0000
  H   H2        1.0  0.78572  0.90439  0.17680  1.0000
  H   H3        1.0  0.11760  0.90420  0.67662  1.0000
  H   H4        1.0  0.21427  0.09561  0.82320  1.0000
  H   H5        1.0  0.89891  0.48695  0.27982  1.0000
  H   H6        1.0  0.41245  0.51280  0.21957  1.0000
  H   H7        1.0  0.10110  0.51305  0.72018  1.0000
  H   H8        1.0  0.58755  0.48720  0.78043  1.0000
  H   H9        1.0  0.56692  0.46729  0.43283  1.0000
  H   H10       1.0  0.10020  0.53251  0.06649  1.0000
  H   H11       1.0  0.43308  0.53271  0.56716  1.0000
  H   H12       1.0  0.89981  0.46749  0.93351  1.0000
  H   H13       1.0  0.42045  0.26357  0.52854  1.0000
  H   H14       1.0  0.15652  0.73637  0.97124  1.0000
  H   H15       1.0  0.57955  0.73643  0.47145  1.0000
  H   H16       1.0  0.84348  0.26363  0.02876  1.0000
  H   H17       1.0  0.41394  0.24185  0.13578  1.0000
  H   H18       1.0  0.17202  0.75834  0.36418  1.0000
  H   H19       1.0  0.58606  0.75814  0.86422  1.0000
  H   H20       1.0  0.82799  0.24166  0.63582  1.0000
  H   H21       1.0  0.30049  0.16365  0.25674  1.0000
  H   H22       1.0  0.13651  0.83659  0.24327  1.0000
  H   H23       1.0  0.69951  0.83635  0.74327  1.0000
  H   H24       1.0  0.86348  0.16341  0.75673  1.0000
  C   C1        1.0  0.82200  0.18010  0.34692  1.0000
  C   C2        1.0  0.64125  0.81998  0.15318  1.0000
  C   C3        1.0  0.17800  0.81990  0.65309  1.0000
  C   C4        1.0  0.35875  0.18001  0.84682  1.0000
  C   C5        1.0  0.91904  0.29194  0.29135  1.0000
  C   C6        1.0  0.62673  0.70804  0.20862  1.0000
  C   C7        1.0  0.08096  0.70806  0.70865  1.0000
  C   C8        1.0  0.37326  0.29195  0.79138  1.0000
  C   C9        1.0  0.82836  0.39848  0.32168  1.0000
  C   C10       1.0  0.42999  0.60141  0.17798  1.0000
  C   C11       1.0  0.17164  0.60152  0.67831  1.0000
  C   C12       1.0  0.57001  0.39859  0.82202  1.0000
  C   C13       1.0  0.64488  0.38692  0.40725  1.0000
  C   C14       1.0  0.25812  0.61302  0.09237  1.0000
  C   C15       1.0  0.35512  0.61308  0.59275  1.0000
  C   C16       1.0  0.74188  0.38698  0.90763  1.0000
  C   C17       1.0  0.55883  0.27332  0.46028  1.0000
  C   C18       1.0  0.28517  0.72667  0.03954  1.0000
  C   C19       1.0  0.44117  0.72669  0.53972  1.0000
  C   C20       1.0  0.71482  0.27333  0.96046  1.0000
  C   C21       1.0  0.22785  0.20187  0.18367  1.0000
  C   C22       1.0  0.02573  0.79824  0.31635  1.0000
  C   C23       1.0  0.77215  0.79812  0.81633  1.0000
  C   C24       1.0  0.97427  0.20176  0.68365  1.0000
  C   C25       1.0  0.04565  0.09471  0.12223  1.0000
  C   C26       1.0  0.95096  0.90532  0.37782  1.0000
  C   C27       1.0  0.95435  0.90529  0.87778  1.0000
  C   C28       1.0  0.04904  0.09468  0.62218  1.0000
  N   N1        1.0  0.64566  0.16935  0.43089  1.0000
  N   N2        1.0  0.47574  0.83068  0.06914  1.0000
  N   N3        1.0  0.35434  0.83065  0.56911  1.0000
  N   N4        1.0  0.52425  0.16932  0.93086  1.0000
  O   O1        1.0  0.16527  0.01074  0.08983  1.0000
  O   O2        1.0  0.15474  0.98945  0.41007  1.0000
  O   O3        1.0  0.83473  0.98926  0.91017  1.0000
  O   O4        1.0  0.84526  0.01055  0.58993  1.0000
  O   O5        1.0  0.78420  0.09223  0.11272  1.0000
  O   O6        1.0  0.69200  0.90769  0.38743  1.0000
  O   O7        1.0  0.21580  0.90777  0.88728  1.0000
  O   O8        1.0  0.30800  0.09231  0.61257  1.0000
  O   O9        1.0  0.09792  0.30364  0.20679  1.0000
  O   O10       1.0  0.79402  0.69638  0.29317  1.0000
  O   O11       1.0  0.90208  0.69635  0.79321  1.0000
  O   O12       1.0  0.20598  0.30362  0.70683  1.0000
