data_image0
_chemical_formula_structural       Fe2P2H18C6O8
_chemical_formula_sum              "Fe2 P2 H18 C6 O8"
_cell_length_a       4.76724
_cell_length_b       5.73412
_cell_length_c       11.7262
_cell_angle_alpha    99.4452
_cell_angle_beta     90.0006
_cell_angle_gamma    89.9991

_space_group_name_H-M_alt    "P 1"
_space_group_IT_number       1

loop_
  _space_group_symop_operation_xyz
  'x, y, z'

loop_
  _atom_site_type_symbol
  _atom_site_label
  _atom_site_symmetry_multiplicity
  _atom_site_fract_x
  _atom_site_fract_y
  _atom_site_fract_z
  _atom_site_occupancy
  Fe  Fe1       1.0  0.75207  0.25043  0.02155  1.0000
  Fe  Fe2       1.0  0.25208  0.74956  0.97844  1.0000
  P   P1        1.0  0.19166  0.21114  0.85291  1.0000
  P   P2        1.0  0.69164  0.78885  0.14709  1.0000
  H   H1        1.0  0.20423  0.41571  0.15018  1.0000
  H   H2        1.0  0.70427  0.58433  0.84982  1.0000
  H   H3        1.0  0.16397  0.14613  0.15728  1.0000
  H   H4        1.0  0.66392  0.85390  0.84271  1.0000
  H   H5        1.0  0.17182  0.95998  0.67142  1.0000
  H   H6        1.0  0.67182  0.04001  0.32858  1.0000
  H   H7        1.0  0.86487  0.13418  0.70185  1.0000
  H   H8        1.0  0.36488  0.86582  0.29815  1.0000
  H   H9        1.0  0.43635  0.31580  0.62951  1.0000
  H   H10       1.0  0.93636  0.68420  0.37050  1.0000
  H   H11       1.0  0.14196  0.49547  0.66537  1.0000
  H   H12       1.0  0.64198  0.50452  0.33464  1.0000
  H   H13       1.0  0.18573  0.37648  0.44846  1.0000
  H   H14       1.0  0.68574  0.62353  0.55154  1.0000
  H   H15       1.0  0.16250  0.07511  0.46385  1.0000
  H   H16       1.0  0.66249  0.92490  0.53615  1.0000
  H   H17       1.0  0.87161  0.26486  0.49928  1.0000
  H   H18       1.0  0.37161  0.73513  0.50072  1.0000
  C   C1        1.0  0.09563  0.14045  0.70280  1.0000
  C   C2        1.0  0.59564  0.85954  0.29719  1.0000
  C   C3        1.0  0.20563  0.31475  0.62745  1.0000
  C   C4        1.0  0.70564  0.68525  0.37255  1.0000
  C   C5        1.0  0.10152  0.25494  0.50306  1.0000
  C   C6        1.0  0.60153  0.74506  0.49694  1.0000
  O   O1        1.0  0.50916  0.20838  0.86624  1.0000
  O   O2        1.0  0.00917  0.79160  0.13376  1.0000
  O   O3        1.0  0.06305  0.29704  0.16302  1.0000
  O   O4        1.0  0.56306  0.70295  0.83698  1.0000
  O   O5        1.0  0.04225  0.02623  0.91769  1.0000
  O   O6        1.0  0.54224  0.97376  0.08231  1.0000
  O   O7        1.0  0.05406  0.45423  0.90391  1.0000
  O   O8        1.0  0.55406  0.54577  0.09609  1.0000
