data_image0
_chemical_formula_structural       Na2H30C26N4O12
_chemical_formula_sum              "Na2 H30 C26 N4 O12"
_cell_length_a       4.61809
_cell_length_b       10.1197
_cell_length_c       16.5123
_cell_angle_alpha    96.7253
_cell_angle_beta     104.638
_cell_angle_gamma    72.9533

_space_group_name_H-M_alt    "P 1"
_space_group_IT_number       1

loop_
  _space_group_symop_operation_xyz
  'x, y, z'

loop_
  _atom_site_type_symbol
  _atom_site_label
  _atom_site_symmetry_multiplicity
  _atom_site_fract_x
  _atom_site_fract_y
  _atom_site_fract_z
  _atom_site_occupancy
  Na  Na1       1.0  1.00000  0.00000  1.00000  1.0000
  Na  Na2       1.0  0.00000  0.50000  0.00000  1.0000
  H   H1        1.0  0.35706  0.63967  0.61761  1.0000
  H   H2        1.0  0.64290  0.36033  0.38239  1.0000
  H   H3        1.0  0.23396  0.71095  0.75869  1.0000
  H   H4        1.0  0.76601  0.28906  0.24131  1.0000
  H   H5        1.0  0.27568  0.59642  0.19527  1.0000
  H   H6        1.0  0.72434  0.40358  0.80474  1.0000
  H   H7        1.0  0.57992  0.50202  0.11349  1.0000
  H   H8        1.0  0.42009  0.49798  0.88651  1.0000
  H   H9        1.0  0.45060  0.64902  0.07788  1.0000
  H   H10       1.0  0.54941  0.35098  0.92212  1.0000
  H   H11       1.0  0.62253  0.05255  0.77636  1.0000
  H   H12       1.0  0.37744  0.94745  0.22363  1.0000
  H   H13       1.0  0.49423  0.76105  0.97318  1.0000
  H   H14       1.0  0.50578  0.23895  0.02682  1.0000
  H   H15       1.0  0.64774  0.80983  0.06098  1.0000
  H   H16       1.0  0.35227  0.19018  0.93902  1.0000
  H   H17       1.0  0.74188  0.98142  0.63430  1.0000
  H   H18       1.0  0.25809  0.01858  0.36569  1.0000
  H   H19       1.0  0.91126  0.28881  0.12637  1.0000
  H   H20       1.0  0.08875  0.71120  0.87363  1.0000
  H   H21       1.0  0.05474  0.41570  0.16824  1.0000
  H   H22       1.0  0.94528  0.58430  0.83176  1.0000
  H   H23       1.0  0.03253  0.91751  0.42154  1.0000
  H   H24       1.0  0.96746  0.08249  0.57846  1.0000
  H   H25       1.0  0.22837  0.80568  0.29403  1.0000
  H   H26       1.0  0.77162  0.19432  0.70597  1.0000
  H   H27       1.0  0.94202  0.44679  0.31821  1.0000
  H   H28       1.0  0.05803  0.55320  0.68180  1.0000
  H   H29       1.0  0.73698  0.56178  0.44345  1.0000
  H   H30       1.0  0.26305  0.43821  0.55656  1.0000
  C   C1        1.0  0.55625  0.80628  0.61823  1.0000
  C   C2        1.0  0.44373  0.19371  0.38176  1.0000
  C   C3        1.0  0.40960  0.73081  0.65304  1.0000
  C   C4        1.0  0.59037  0.26919  0.34696  1.0000
  C   C5        1.0  0.34332  0.77043  0.73115  1.0000
  C   C6        1.0  0.65666  0.22957  0.26885  1.0000
  C   C7        1.0  0.42276  0.88592  0.77636  1.0000
  C   C8        1.0  0.57722  0.11409  0.22364  1.0000
  C   C9        1.0  0.56338  0.96288  0.74045  1.0000
  C   C10       1.0  0.43659  0.03712  0.25954  1.0000
  C   C11       1.0  0.62911  0.92436  0.66234  1.0000
  C   C12       1.0  0.37087  0.07565  0.33765  1.0000
  C   C13       1.0  0.36688  0.92633  0.86210  1.0000
  C   C14       1.0  0.63311  0.07367  0.13790  1.0000
  C   C15       1.0  0.87095  0.74689  0.43910  1.0000
  C   C16       1.0  0.12905  0.25311  0.56090  1.0000
  C   C17       1.0  0.01000  0.81525  0.39698  1.0000
  C   C18       1.0  0.99000  0.18475  0.60301  1.0000
  C   C19       1.0  0.11779  0.75335  0.32635  1.0000
  C   C20       1.0  0.88222  0.24664  0.67365  1.0000
  C   C21       1.0  0.09196  0.62001  0.29822  1.0000
  C   C22       1.0  0.90806  0.37998  0.70178  1.0000
  C   C23       1.0  0.95450  0.55084  0.34064  1.0000
  C   C24       1.0  0.04553  0.44915  0.65936  1.0000
  C   C25       1.0  0.84406  0.61337  0.40974  1.0000
  C   C26       1.0  0.15597  0.38663  0.59027  1.0000
  N   N1        1.0  0.63549  0.74908  0.54246  1.0000
  N   N2        1.0  0.36450  0.25092  0.45753  1.0000
  N   N3        1.0  0.77327  0.81487  0.51061  1.0000
  N   N4        1.0  0.22671  0.18512  0.48939  1.0000
  O   O1        1.0  0.22047  0.86036  0.89246  1.0000
  O   O2        1.0  0.77952  0.13964  0.10754  1.0000
  O   O3        1.0  0.46982  0.02400  0.90319  1.0000
  O   O4        1.0  0.53018  0.97601  0.09680  1.0000
  O   O5        1.0  0.20101  0.54793  0.23253  1.0000
  O   O6        1.0  0.79903  0.45206  0.76748  1.0000
  O   O7        1.0  0.38696  0.58176  0.10481  1.0000
  O   O8        1.0  0.61305  0.41824  0.89519  1.0000
  O   O9        1.0  0.63437  0.72332  0.02657  1.0000
  O   O10       1.0  0.36564  0.27668  0.97343  1.0000
  O   O11       1.0  0.92599  0.38185  0.11738  1.0000
  O   O12       1.0  0.07403  0.61815  0.88263  1.0000
