data_image0
_chemical_formula_structural       Na2H8C12N6O16
_chemical_formula_sum              "Na2 H8 C12 N6 O16"
_cell_length_a       3.74109
_cell_length_b       11.9505
_cell_length_c       11.9459
_cell_angle_alpha    116.094
_cell_angle_beta     89.4656
_cell_angle_gamma    89.5334

_space_group_name_H-M_alt    "P 1"
_space_group_IT_number       1

loop_
  _space_group_symop_operation_xyz
  'x, y, z'

loop_
  _atom_site_type_symbol
  _atom_site_label
  _atom_site_symmetry_multiplicity
  _atom_site_fract_x
  _atom_site_fract_y
  _atom_site_fract_z
  _atom_site_occupancy
  Na  Na1       1.0  0.50040  0.49989  0.49993  1.0000
  Na  Na2       1.0  0.99992  0.99999  0.99999  1.0000
  H   H1        1.0  0.46583  0.77991  0.85582  1.0000
  H   H2        1.0  0.53393  0.14427  0.22020  1.0000
  H   H3        1.0  0.53430  0.22002  0.14417  1.0000
  H   H4        1.0  0.46585  0.85574  0.77985  1.0000
  H   H5        1.0  0.25057  0.92104  0.38286  1.0000
  H   H6        1.0  0.74884  0.61712  0.07899  1.0000
  H   H7        1.0  0.74951  0.07895  0.61705  1.0000
  H   H8        1.0  0.25065  0.38293  0.92113  1.0000
  C   C1        1.0  0.00020  0.63332  0.36660  1.0000
  C   C2        1.0  0.00020  0.36665  0.63336  1.0000
  C   C3        1.0  0.14527  0.75915  0.41206  1.0000
  C   C4        1.0  0.85448  0.58797  0.24087  1.0000
  C   C5        1.0  0.85501  0.24085  0.58789  1.0000
  C   C6        1.0  0.14542  0.41207  0.75920  1.0000
  C   C7        1.0  0.14182  0.82759  0.34406  1.0000
  C   C8        1.0  0.85779  0.65596  0.17242  1.0000
  C   C9        1.0  0.85817  0.17242  0.65590  1.0000
  C   C10       1.0  0.14188  0.34408  0.82766  1.0000
  C   C11       1.0  0.99971  0.77538  0.22463  1.0000
  C   C12       1.0  0.00008  0.22460  0.77537  1.0000
  N   N1        1.0  0.29352  0.82123  0.53616  1.0000
  N   N2        1.0  0.70659  0.46384  0.17884  1.0000
  N   N3        1.0  0.70695  0.17883  0.46378  1.0000
  N   N4        1.0  0.29326  0.53622  0.82127  1.0000
  N   N5        1.0  0.99980  0.84662  0.15320  1.0000
  N   N6        1.0  0.99992  0.15332  0.84678  1.0000
  O   O1        1.0  0.00056  0.57155  0.42844  1.0000
  O   O2        1.0  0.00026  0.42843  0.57154  1.0000
  O   O3        1.0  0.40105  0.75757  0.58911  1.0000
  O   O4        1.0  0.59963  0.41075  0.24250  1.0000
  O   O5        1.0  0.59921  0.24253  0.41088  1.0000
  O   O6        1.0  0.40096  0.58917  0.75756  1.0000
  O   O7        1.0  0.31051  0.93683  0.58466  1.0000
  O   O8        1.0  0.68861  0.41546  0.06322  1.0000
  O   O9        1.0  0.68991  0.06322  0.41523  1.0000
  O   O10       1.0  0.31020  0.58466  0.93691  1.0000
  O   O11       1.0  0.16482  0.94656  0.19483  1.0000
  O   O12       1.0  0.83484  0.80494  0.05323  1.0000
  O   O13       1.0  0.83506  0.05332  0.80502  1.0000
  O   O14       1.0  0.16456  0.19511  0.94682  1.0000
  O   O15       1.0  0.46852  0.86592  0.86592  1.0000
  O   O16       1.0  0.53141  0.13402  0.13410  1.0000
