data_image0
_chemical_formula_structural       Cu2H32C26S2N8O6F6
_chemical_formula_sum              "Cu2 H32 C26 S2 N8 O6 F6"
_cell_length_a       8.9655
_cell_length_b       9.36376
_cell_length_c       11.9203
_cell_angle_alpha    80.327
_cell_angle_beta     69.1605
_cell_angle_gamma    62.5039

_space_group_name_H-M_alt    "P 1"
_space_group_IT_number       1

loop_
  _space_group_symop_operation_xyz
  'x, y, z'

loop_
  _atom_site_type_symbol
  _atom_site_label
  _atom_site_symmetry_multiplicity
  _atom_site_fract_x
  _atom_site_fract_y
  _atom_site_fract_z
  _atom_site_occupancy
  Cu  Cu1       1.0  0.15762  0.67376  0.74489  1.0000
  Cu  Cu2       1.0  0.84238  0.32623  0.25511  1.0000
  H   H1        1.0  0.81826  0.67326  0.87772  1.0000
  H   H2        1.0  0.18173  0.32674  0.12229  1.0000
  H   H3        1.0  0.37811  0.55177  0.91890  1.0000
  H   H4        1.0  0.62187  0.44824  0.08111  1.0000
  H   H5        1.0  0.43073  0.35489  0.98501  1.0000
  H   H6        1.0  0.56927  0.64512  0.01499  1.0000
  H   H7        1.0  0.43110  0.38939  0.83266  1.0000
  H   H8        1.0  0.56889  0.61062  0.16735  1.0000
  H   H9        1.0  0.44051  0.74841  0.58056  1.0000
  H   H10       1.0  0.55949  0.25158  0.41944  1.0000
  H   H11       1.0  0.33550  0.22173  0.58904  1.0000
  H   H12       1.0  0.66448  0.77827  0.41097  1.0000
  H   H13       1.0  0.30060  0.30888  0.72240  1.0000
  H   H14       1.0  0.69939  0.69112  0.27760  1.0000
  H   H15       1.0  0.14838  0.40998  0.64170  1.0000
  H   H16       1.0  0.85163  0.59002  0.35829  1.0000
  H   H17       1.0  0.68859  0.04852  0.55068  1.0000
  H   H18       1.0  0.31141  0.95149  0.44932  1.0000
  H   H19       1.0  0.03210  0.01091  0.79810  1.0000
  H   H20       1.0  0.96791  0.98908  0.20191  1.0000
  H   H21       1.0  0.88414  0.66040  0.65920  1.0000
  H   H22       1.0  0.11587  0.33959  0.34079  1.0000
  H   H23       1.0  0.05729  0.67385  0.53026  1.0000
  H   H24       1.0  0.94271  0.32616  0.46973  1.0000
  H   H25       1.0  0.83283  0.76466  0.52975  1.0000
  H   H26       1.0  0.16717  0.23535  0.47024  1.0000
  H   H27       1.0  0.70047  0.42780  0.73582  1.0000
  H   H28       1.0  0.29954  0.57219  0.26419  1.0000
  H   H29       1.0  0.79469  0.31886  0.85070  1.0000
  H   H30       1.0  0.20533  0.68112  0.14931  1.0000
  H   H31       1.0  0.93305  0.34389  0.70821  1.0000
  H   H32       1.0  0.06697  0.65610  0.29180  1.0000
  C   C1        1.0  0.32066  0.01935  0.89936  1.0000
  C   C2        1.0  0.67933  0.98067  0.10064  1.0000
  C   C3        1.0  0.90061  0.59472  0.93226  1.0000
  C   C4        1.0  0.09938  0.40529  0.06774  1.0000
  C   C5        1.0  0.17387  0.47401  0.96337  1.0000
  C   C6        1.0  0.82612  0.52599  0.03663  1.0000
  C   C7        1.0  0.36449  0.44008  0.92373  1.0000
  C   C8        1.0  0.63550  0.55993  0.07628  1.0000
  C   C9        1.0  0.46790  0.63611  0.54469  1.0000
  C   C10       1.0  0.53211  0.36388  0.45530  1.0000
  C   C11       1.0  0.39648  0.42415  0.56243  1.0000
  C   C12       1.0  0.60352  0.57584  0.43757  1.0000
  C   C13       1.0  0.28964  0.33597  0.63165  1.0000
  C   C14       1.0  0.71036  0.66402  0.36835  1.0000
  C   C15       1.0  0.88785  0.89077  0.63189  1.0000
  C   C16       1.0  0.11215  0.10923  0.36811  1.0000
  C   C17       1.0  0.76741  0.04170  0.60495  1.0000
  C   C18       1.0  0.23259  0.95831  0.39505  1.0000
  C   C19       1.0  0.83660  0.17133  0.71142  1.0000
  C   C20       1.0  0.16341  0.82866  0.28858  1.0000
  C   C21       1.0  0.95567  0.02143  0.74127  1.0000
  C   C22       1.0  0.04434  0.97855  0.25873  1.0000
  C   C23       1.0  0.91772  0.73852  0.58482  1.0000
  C   C24       1.0  0.08228  0.26148  0.41517  1.0000
  C   C25       1.0  0.81380  0.32411  0.75411  1.0000
  C   C26       1.0  0.18621  0.67589  0.24590  1.0000
  S   S1        1.0  0.41519  0.85565  0.78913  1.0000
  S   S2        1.0  0.58481  0.14436  0.21086  1.0000
  N   N1        1.0  0.07131  0.57074  0.89482  1.0000
  N   N2        1.0  0.92869  0.42925  0.10519  1.0000
  N   N3        1.0  0.36352  0.56350  0.60735  1.0000
  N   N4        1.0  0.63649  0.43649  0.39264  1.0000
  N   N5        1.0  0.98188  0.88217  0.70246  1.0000
  N   N6        1.0  0.01812  0.11782  0.29754  1.0000
  N   N7        1.0  0.74089  0.18066  0.64316  1.0000
  N   N8        1.0  0.25912  0.81933  0.35684  1.0000
  O   O1        1.0  0.27664  0.79897  0.82678  1.0000
  O   O2        1.0  0.72337  0.20102  0.17322  1.0000
  O   O3        1.0  0.58030  0.74144  0.81083  1.0000
  O   O4        1.0  0.41971  0.25858  0.18916  1.0000
  O   O5        1.0  0.43311  0.93792  0.67324  1.0000
  O   O6        1.0  0.56688  0.06209  0.32676  1.0000
  F   F1        1.0  0.43112  0.08936  0.87917  1.0000
  F   F2        1.0  0.56884  0.91068  0.12082  1.0000
  F   F3        1.0  0.16126  0.13664  0.89191  1.0000
  F   F4        1.0  0.83871  0.86336  0.10809  1.0000
  F   F5        1.0  0.29392  0.96140  0.01342  1.0000
  F   F6        1.0  0.70608  0.03861  0.98658  1.0000
