data_image0
_chemical_formula_structural       U4P4H12C8O28
_chemical_formula_sum              "U4 P4 H12 C8 O28"
_cell_length_a       6.70148
_cell_length_b       7.13675
_cell_length_c       14.2888
_cell_angle_alpha    90
_cell_angle_beta     104.012
_cell_angle_gamma    89.9998

_space_group_name_H-M_alt    "P 1"
_space_group_IT_number       1

loop_
  _space_group_symop_operation_xyz
  'x, y, z'

loop_
  _atom_site_type_symbol
  _atom_site_label
  _atom_site_symmetry_multiplicity
  _atom_site_fract_x
  _atom_site_fract_y
  _atom_site_fract_z
  _atom_site_occupancy
  U   U1        1.0  0.90625  0.32889  0.26227  1.0000
  U   U2        1.0  0.59375  0.82888  0.23772  1.0000
  U   U3        1.0  0.09376  0.67111  0.73773  1.0000
  U   U4        1.0  0.40624  0.17111  0.76227  1.0000
  P   P1        1.0  0.08439  0.83061  0.28996  1.0000
  P   P2        1.0  0.41561  0.33061  0.21004  1.0000
  P   P3        1.0  0.91560  0.16939  0.71004  1.0000
  P   P4        1.0  0.58440  0.66939  0.78996  1.0000
  H   H1        1.0  0.56518  0.62590  0.55488  1.0000
  H   H2        1.0  0.93482  0.12588  0.94513  1.0000
  H   H3        1.0  0.43482  0.37411  0.44513  1.0000
  H   H4        1.0  0.06520  0.87412  0.05487  1.0000
  H   H5        1.0  0.27844  0.00188  0.42889  1.0000
  H   H6        1.0  0.22157  0.50187  0.07111  1.0000
  H   H7        1.0  0.72156  0.99812  0.57111  1.0000
  H   H8        1.0  0.77843  0.49814  0.92889  1.0000
  H   H9        1.0  0.06612  0.87747  0.45342  1.0000
  H   H10       1.0  0.43389  0.37746  0.04658  1.0000
  H   H11       1.0  0.93388  0.12253  0.54658  1.0000
  H   H12       1.0  0.56612  0.62255  0.95342  1.0000
  C   C1        1.0  0.19345  0.86887  0.41728  1.0000
  C   C2        1.0  0.30656  0.36886  0.08272  1.0000
  C   C3        1.0  0.80655  0.13113  0.58272  1.0000
  C   C4        1.0  0.69344  0.63115  0.91728  1.0000
  C   C5        1.0  0.32967  0.70721  0.45960  1.0000
  C   C6        1.0  0.17034  0.20719  0.04041  1.0000
  C   C7        1.0  0.67034  0.29279  0.54041  1.0000
  C   C8        1.0  0.82965  0.79280  0.95959  1.0000
  O   O1        1.0  0.85359  0.35669  0.13336  1.0000
  O   O2        1.0  0.64641  0.85668  0.36663  1.0000
  O   O3        1.0  0.14642  0.64331  0.86663  1.0000
  O   O4        1.0  0.35358  0.14332  0.63336  1.0000
  O   O5        1.0  0.94307  0.29324  0.38999  1.0000
  O   O6        1.0  0.55693  0.79322  0.11001  1.0000
  O   O7        1.0  0.05693  0.70675  0.61001  1.0000
  O   O8        1.0  0.44305  0.20676  0.88999  1.0000
  O   O9        1.0  0.25508  0.80536  0.23742  1.0000
  O   O10       1.0  0.24493  0.30535  0.26258  1.0000
  O   O11       1.0  0.74491  0.19464  0.76257  1.0000
  O   O12       1.0  0.75508  0.69464  0.73742  1.0000
  O   O13       1.0  0.93751  0.99653  0.25010  1.0000
  O   O14       1.0  0.56248  0.49653  0.24990  1.0000
  O   O15       1.0  0.06249  0.00347  0.74990  1.0000
  O   O16       1.0  0.43751  0.50347  0.75010  1.0000
  O   O17       1.0  0.93311  0.66153  0.27427  1.0000
  O   O18       1.0  0.56689  0.16153  0.22573  1.0000
  O   O19       1.0  0.06689  0.33847  0.72573  1.0000
  O   O20       1.0  0.43311  0.83847  0.77427  1.0000
  O   O21       1.0  0.29975  0.54971  0.42128  1.0000
  O   O22       1.0  0.20026  0.04970  0.07871  1.0000
  O   O23       1.0  0.70024  0.45030  0.57872  1.0000
  O   O24       1.0  0.79975  0.95031  0.92128  1.0000
  O   O25       1.0  0.47598  0.74479  0.53644  1.0000
  O   O26       1.0  0.02402  0.24478  0.96357  1.0000
  O   O27       1.0  0.52400  0.25521  0.46356  1.0000
  O   O28       1.0  0.97599  0.75523  0.03644  1.0000
