data_image0
_chemical_formula_structural       Zn2P4H28C12O12
_chemical_formula_sum              "Zn2 P4 H28 C12 O12"
_cell_length_a       9.30547
_cell_length_b       5.21387
_cell_length_c       11.4936
_cell_angle_alpha    103.068
_cell_angle_beta     107.22
_cell_angle_gamma    89.9857

_space_group_name_H-M_alt    "P 1"
_space_group_IT_number       1

loop_
  _space_group_symop_operation_xyz
  'x, y, z'

loop_
  _atom_site_type_symbol
  _atom_site_label
  _atom_site_symmetry_multiplicity
  _atom_site_fract_x
  _atom_site_fract_y
  _atom_site_fract_z
  _atom_site_occupancy
  Zn  Zn1       1.0  0.25005  0.48131  0.99997  1.0000
  Zn  Zn2       1.0  0.74995  0.51869  0.00003  1.0000
  P   P1        1.0  0.54911  0.28739  0.15860  1.0000
  P   P2        1.0  0.95083  0.12920  0.84143  1.0000
  P   P3        1.0  0.45090  0.71262  0.84140  1.0000
  P   P4        1.0  0.04916  0.87078  0.15857  1.0000
  H   H1        1.0  0.48829  0.86707  0.08730  1.0000
  H   H2        1.0  0.01154  0.77982  0.91269  1.0000
  H   H3        1.0  0.51170  0.13294  0.91270  1.0000
  H   H4        1.0  0.98845  0.22016  0.08731  1.0000
  H   H5        1.0  0.68317  0.67138  0.29409  1.0000
  H   H6        1.0  0.81655  0.37799  0.70573  1.0000
  H   H7        1.0  0.31683  0.32863  0.70591  1.0000
  H   H8        1.0  0.18345  0.62200  0.29429  1.0000
  H   H9        1.0  0.60618  0.48167  0.37383  1.0000
  H   H10       1.0  0.89408  0.10921  0.62615  1.0000
  H   H11       1.0  0.39382  0.51831  0.62617  1.0000
  H   H12       1.0  0.10593  0.89080  0.37386  1.0000
  H   H13       1.0  0.88189  0.33347  0.28200  1.0000
  H   H14       1.0  0.61839  0.05160  0.71786  1.0000
  H   H15       1.0  0.11812  0.66653  0.71800  1.0000
  H   H16       1.0  0.38159  0.94838  0.28213  1.0000
  H   H17       1.0  0.80927  0.16715  0.37180  1.0000
  H   H18       1.0  0.69132  0.79596  0.62819  1.0000
  H   H19       1.0  0.19074  0.83286  0.62820  1.0000
  H   H20       1.0  0.30867  0.20403  0.37180  1.0000
  H   H21       1.0  0.86437  0.58548  0.54573  1.0000
  H   H22       1.0  0.63526  0.04000  0.45388  1.0000
  H   H23       1.0  0.13563  0.41455  0.45427  1.0000
  H   H24       1.0  0.36474  0.96000  0.54611  1.0000
  H   H25       1.0  0.93810  0.74413  0.45343  1.0000
  H   H26       1.0  0.56145  0.29072  0.54620  1.0000
  H   H27       1.0  0.06190  0.25587  0.54656  1.0000
  H   H28       1.0  0.43856  0.70928  0.45379  1.0000
  C   C1        1.0  0.67052  0.47016  0.30667  1.0000
  C   C2        1.0  0.82955  0.16432  0.69322  1.0000
  C   C3        1.0  0.32948  0.52984  0.69333  1.0000
  C   C4        1.0  0.17045  0.83568  0.30679  1.0000
  C   C5        1.0  0.82426  0.36307  0.35415  1.0000
  C   C6        1.0  0.67600  0.00934  0.64570  1.0000
  C   C7        1.0  0.17575  0.63694  0.64585  1.0000
  C   C8        1.0  0.32400  0.99066  0.35429  1.0000
  C   C9        1.0  0.92300  0.55027  0.47371  1.0000
  C   C10       1.0  0.57690  0.07672  0.52609  1.0000
  C   C11       1.0  0.07701  0.44974  0.52629  1.0000
  C   C12       1.0  0.42310  0.92328  0.47390  1.0000
  O   O1        1.0  0.61215  0.30365  0.05014  1.0000
  O   O2        1.0  0.88760  0.25363  0.94975  1.0000
  O   O3        1.0  0.38784  0.69635  0.94986  1.0000
  O   O4        1.0  0.11240  0.74635  0.05025  1.0000
  O   O5        1.0  0.39030  0.38296  0.14099  1.0000
  O   O6        1.0  0.10971  0.24214  0.85921  1.0000
  O   O7        1.0  0.60970  0.61707  0.85902  1.0000
  O   O8        1.0  0.89030  0.75783  0.14081  1.0000
  O   O9        1.0  0.54986  0.98873  0.16930  1.0000
  O   O10       1.0  0.94997  0.81982  0.83071  1.0000
  O   O11       1.0  0.45012  0.01128  0.83070  1.0000
  O   O12       1.0  0.05003  0.18016  0.16930  1.0000
