data_image0
_chemical_formula_structural       Zn2P4H28C12O12
_chemical_formula_sum              "Zn2 P4 H28 C12 O12"
_cell_length_a       7.95941
_cell_length_b       8.50478
_cell_length_c       9.45469
_cell_angle_alpha    116.754
_cell_angle_beta     101.344
_cell_angle_gamma    89.9943

_space_group_name_H-M_alt    "P 1"
_space_group_IT_number       1

loop_
  _space_group_symop_operation_xyz
  'x, y, z'

loop_
  _atom_site_type_symbol
  _atom_site_label
  _atom_site_symmetry_multiplicity
  _atom_site_fract_x
  _atom_site_fract_y
  _atom_site_fract_z
  _atom_site_occupancy
  Zn  Zn1       1.0  0.24992  0.55769  0.99997  1.0000
  Zn  Zn2       1.0  0.75008  0.44232  0.00003  1.0000
  P   P1        1.0  0.48565  0.39163  0.18327  1.0000
  P   P2        1.0  0.01432  0.20811  0.81657  1.0000
  P   P3        1.0  0.51435  0.60837  0.81673  1.0000
  P   P4        1.0  0.98567  0.79190  0.18343  1.0000
  H   H1        1.0  0.44976  0.12293  0.15463  1.0000
  H   H2        1.0  0.05058  0.96816  0.84528  1.0000
  H   H3        1.0  0.55024  0.87707  0.84536  1.0000
  H   H4        1.0  0.94942  0.03184  0.15472  1.0000
  H   H5        1.0  0.72105  0.59884  0.35637  1.0000
  H   H6        1.0  0.77902  0.24205  0.64340  1.0000
  H   H7        1.0  0.27895  0.40118  0.64363  1.0000
  H   H8        1.0  0.22097  0.75795  0.35660  1.0000
  H   H9        1.0  0.59958  0.54935  0.47190  1.0000
  H   H10       1.0  0.90036  0.07677  0.52792  1.0000
  H   H11       1.0  0.40042  0.45065  0.52809  1.0000
  H   H12       1.0  0.09963  0.92323  0.47209  1.0000
  H   H13       1.0  0.71269  0.25248  0.38637  1.0000
  H   H14       1.0  0.78702  0.86569  0.61353  1.0000
  H   H15       1.0  0.28732  0.74751  0.61363  1.0000
  H   H16       1.0  0.21297  0.13431  0.38647  1.0000
  H   H17       1.0  0.82160  0.29031  0.25764  1.0000
  H   H18       1.0  0.67830  0.03256  0.74234  1.0000
  H   H19       1.0  0.17841  0.70970  0.74235  1.0000
  H   H20       1.0  0.32170  0.96744  0.25767  1.0000
  H   H21       1.0  0.89990  0.51462  0.62845  1.0000
  H   H22       1.0  0.59988  0.88585  0.37154  1.0000
  H   H23       1.0  0.10010  0.48538  0.37155  1.0000
  H   H24       1.0  0.40011  0.11415  0.62846  1.0000
  H   H25       1.0  0.00911  0.33300  0.52363  1.0000
  H   H26       1.0  0.49051  0.80935  0.47634  1.0000
  H   H27       1.0  0.99090  0.66700  0.47637  1.0000
  H   H28       1.0  0.50949  0.19066  0.52366  1.0000
  C   C1        1.0  0.65516  0.49007  0.36395  1.0000
  C   C2        1.0  0.84484  0.12565  0.63591  1.0000
  C   C3        1.0  0.34485  0.50994  0.63605  1.0000
  C   C4        1.0  0.15515  0.87435  0.36410  1.0000
  C   C5        1.0  0.78043  0.35662  0.37364  1.0000
  C   C6        1.0  0.71943  0.98269  0.62631  1.0000
  C   C7        1.0  0.21957  0.64338  0.62635  1.0000
  C   C8        1.0  0.28057  0.01731  0.37370  1.0000
  C   C9        1.0  0.93952  0.43993  0.51229  1.0000
  C   C10       1.0  0.56032  0.92749  0.48771  1.0000
  C   C11       1.0  0.06048  0.56006  0.48770  1.0000
  C   C12       1.0  0.43969  0.07251  0.51230  1.0000
  O   O1        1.0  0.56651  0.31762  0.03468  1.0000
  O   O2        1.0  0.93336  0.28258  0.96509  1.0000
  O   O3        1.0  0.43351  0.68237  0.96531  1.0000
  O   O4        1.0  0.06662  0.71743  0.03492  1.0000
  O   O5        1.0  0.35035  0.51974  0.18889  1.0000
  O   O6        1.0  0.14935  0.33076  0.81083  1.0000
  O   O7        1.0  0.64966  0.48024  0.81111  1.0000
  O   O8        1.0  0.85063  0.66923  0.18917  1.0000
  O   O9        1.0  0.38674  0.22744  0.18593  1.0000
  O   O10       1.0  0.11349  0.04139  0.81396  1.0000
  O   O11       1.0  0.61326  0.77256  0.81406  1.0000
  O   O12       1.0  0.88651  0.95862  0.18604  1.0000
