data_image0
_chemical_formula_structural       Zn4P4H20C10O12
_chemical_formula_sum              "Zn4 P4 H20 C10 O12"
_cell_length_a       4.80152
_cell_length_b       9.57594
_cell_length_c       11.0881
_cell_angle_alpha    96.3253
_cell_angle_beta     102.532
_cell_angle_gamma    89.9885

_space_group_name_H-M_alt    "P 1"
_space_group_IT_number       1

loop_
  _space_group_symop_operation_xyz
  'x, y, z'

loop_
  _atom_site_type_symbol
  _atom_site_label
  _atom_site_symmetry_multiplicity
  _atom_site_fract_x
  _atom_site_fract_y
  _atom_site_fract_z
  _atom_site_occupancy
  Zn  Zn1       1.0  0.41615  0.60884  0.59532  1.0000
  Zn  Zn2       1.0  0.82085  0.89113  0.40477  1.0000
  Zn  Zn3       1.0  0.58385  0.39116  0.40468  1.0000
  Zn  Zn4       1.0  0.17915  0.10887  0.59523  1.0000
  P   P1        1.0  0.00414  0.42822  0.67472  1.0000
  P   P2        1.0  0.32924  0.07180  0.32529  1.0000
  P   P3        1.0  0.99587  0.57177  0.32528  1.0000
  P   P4        1.0  0.67076  0.92820  0.67472  1.0000
  H   H1        1.0  0.23484  0.23148  0.85616  1.0000
  H   H2        1.0  0.37825  0.26862  0.14402  1.0000
  H   H3        1.0  0.76516  0.76852  0.14384  1.0000
  H   H4        1.0  0.62175  0.73138  0.85598  1.0000
  H   H5        1.0  0.27953  0.39576  0.94698  1.0000
  H   H6        1.0  0.33212  0.10437  0.05321  1.0000
  H   H7        1.0  0.72047  0.60424  0.05302  1.0000
  H   H8        1.0  0.66788  0.89563  0.94679  1.0000
  H   H9        1.0  0.78283  0.46256  0.84781  1.0000
  H   H10       1.0  0.93454  0.03753  0.15210  1.0000
  H   H11       1.0  0.21717  0.53744  0.15219  1.0000
  H   H12       1.0  0.06546  0.96247  0.84791  1.0000
  H   H13       1.0  0.71650  0.29266  0.76627  1.0000
  H   H14       1.0  0.94964  0.20741  0.23373  1.0000
  H   H15       1.0  0.28350  0.70734  0.23373  1.0000
  H   H16       1.0  0.05036  0.79259  0.76627  1.0000
  H   H17       1.0  0.83110  0.16907  0.95269  1.0000
  H   H18       1.0  0.87821  0.33128  0.04702  1.0000
  H   H19       1.0  0.16890  0.83093  0.04731  1.0000
  H   H20       1.0  0.12179  0.66872  0.95298  1.0000
  C   C1        1.0  0.11910  0.31308  0.90218  1.0000
  C   C2        1.0  0.21644  0.18705  0.09792  1.0000
  C   C3        1.0  0.88090  0.68692  0.09782  1.0000
  C   C4        1.0  0.78356  0.81295  0.90208  1.0000
  C   C5        1.0  0.88569  0.37292  0.80556  1.0000
  C   C6        1.0  0.07959  0.12719  0.19443  1.0000
  C   C7        1.0  0.11431  0.62708  0.19444  1.0000
  C   C8        1.0  0.92041  0.87281  0.80557  1.0000
  C   C9        1.0  0.99298  0.25012  0.99994  1.0000
  C   C10       1.0  0.00702  0.74988  0.00006  1.0000
  O   O1        1.0  0.21552  0.55419  0.71873  1.0000
  O   O2        1.0  0.49680  0.94592  0.28126  1.0000
  O   O3        1.0  0.78449  0.44581  0.28127  1.0000
  O   O4        1.0  0.50320  0.05408  0.71874  1.0000
  O   O5        1.0  0.73235  0.47430  0.58259  1.0000
  O   O6        1.0  0.14991  0.02554  0.41741  1.0000
  O   O7        1.0  0.26765  0.52570  0.41742  1.0000
  O   O8        1.0  0.85009  0.97447  0.58259  1.0000
  O   O9        1.0  0.13588  0.30654  0.60656  1.0000
  O   O10       1.0  0.52889  0.19355  0.39350  1.0000
  O   O11       1.0  0.86412  0.69346  0.39345  1.0000
  O   O12       1.0  0.47111  0.80644  0.60650  1.0000
