data_image0
_chemical_formula_structural       Cu2H22C14I2N4
_chemical_formula_sum              "Cu2 H22 C14 I2 N4"
_cell_length_a       4.34204
_cell_length_b       8.50443
_cell_length_c       12.3964
_cell_angle_alpha    81.7478
_cell_angle_beta     83.4395
_cell_angle_gamma    84.5175

_space_group_name_H-M_alt    "P 1"
_space_group_IT_number       1

loop_
  _space_group_symop_operation_xyz
  'x, y, z'

loop_
  _atom_site_type_symbol
  _atom_site_label
  _atom_site_symmetry_multiplicity
  _atom_site_fract_x
  _atom_site_fract_y
  _atom_site_fract_z
  _atom_site_occupancy
  Cu  Cu1       1.0  0.69224  0.43638  0.11039  1.0000
  Cu  Cu2       1.0  0.30776  0.56362  0.88961  1.0000
  H   H1        1.0  0.78143  0.47969  0.35784  1.0000
  H   H2        1.0  0.21857  0.52031  0.64216  1.0000
  H   H3        1.0  0.15367  0.38747  0.32225  1.0000
  H   H4        1.0  0.84633  0.61253  0.67775  1.0000
  H   H5        1.0  0.96026  0.33495  0.45557  1.0000
  H   H6        1.0  0.03974  0.66505  0.54443  1.0000
  H   H7        1.0  0.79424  0.03197  0.46429  1.0000
  H   H8        1.0  0.20575  0.96803  0.53571  1.0000
  H   H9        1.0  0.21916  0.84847  0.32153  1.0000
  H   H10       1.0  0.78083  0.15153  0.67847  1.0000
  H   H11       1.0  0.51372  0.78316  0.41040  1.0000
  H   H12       1.0  0.48627  0.21685  0.58961  1.0000
  H   H13       1.0  0.58911  0.77347  0.26715  1.0000
  H   H14       1.0  0.41088  0.22653  0.73285  1.0000
  H   H15       1.0  0.30172  0.21781  0.09342  1.0000
  H   H16       1.0  0.69829  0.78219  0.90658  1.0000
  H   H17       1.0  0.16799  0.03542  0.16268  1.0000
  H   H18       1.0  0.83202  0.96458  0.83731  1.0000
  H   H19       1.0  0.65651  0.88637  0.08898  1.0000
  H   H20       1.0  0.34350  0.11363  0.91102  1.0000
  H   H21       1.0  0.79344  0.06979  0.02359  1.0000
  H   H22       1.0  0.20657  0.93021  0.97641  1.0000
  C   C1        1.0  0.92666  0.36652  0.36849  1.0000
  C   C2        1.0  0.07334  0.63348  0.63151  1.0000
  C   C3        1.0  0.77923  0.23677  0.32943  1.0000
  C   C4        1.0  0.22076  0.76323  0.67057  1.0000
  C   C5        1.0  0.73159  0.08284  0.38384  1.0000
  C   C6        1.0  0.26840  0.91716  0.61616  1.0000
  C   C7        1.0  0.57756  0.00819  0.31527  1.0000
  C   C8        1.0  0.42244  0.99181  0.68473  1.0000
  C   C9        1.0  0.46963  0.84496  0.32910  1.0000
  C   C10       1.0  0.53037  0.15504  0.67090  1.0000
  C   C11       1.0  0.37746  0.09742  0.13152  1.0000
  C   C12       1.0  0.62255  0.90257  0.86848  1.0000
  C   C13       1.0  0.58325  0.00642  0.04968  1.0000
  C   C14       1.0  0.41676  0.99358  0.95032  1.0000
  I   I1        1.0  0.16066  0.61698  0.10322  1.0000
  I   I2        1.0  0.83935  0.38302  0.89678  1.0000
  N   N1        1.0  0.66186  0.25640  0.23145  1.0000
  N   N2        1.0  0.33814  0.74359  0.76854  1.0000
  N   N3        1.0  0.53652  0.11678  0.22517  1.0000
  N   N4        1.0  0.46348  0.88322  0.77483  1.0000
