data_image0
_chemical_formula_structural       Cu4H44C28Br4N8
_chemical_formula_sum              "Cu4 H44 C28 Br4 N8"
_cell_length_a       4.13233
_cell_length_b       8.26786
_cell_length_c       24.3784
_cell_angle_alpha    89.9997
_cell_angle_beta     92.385
_cell_angle_gamma    89.9998

_space_group_name_H-M_alt    "P 1"
_space_group_IT_number       1

loop_
  _space_group_symop_operation_xyz
  'x, y, z'

loop_
  _atom_site_type_symbol
  _atom_site_label
  _atom_site_symmetry_multiplicity
  _atom_site_fract_x
  _atom_site_fract_y
  _atom_site_fract_z
  _atom_site_occupancy
  Cu  Cu1       1.0  0.24755  0.45929  0.05732  1.0000
  Cu  Cu2       1.0  0.25242  0.95929  0.44268  1.0000
  Cu  Cu3       1.0  0.75240  0.54071  0.94268  1.0000
  Cu  Cu4       1.0  0.74757  0.04072  0.55732  1.0000
  H   H1        1.0  0.70231  0.52823  0.14899  1.0000
  H   H2        1.0  0.79768  0.02823  0.35101  1.0000
  H   H3        1.0  0.29771  0.47177  0.85101  1.0000
  H   H4        1.0  0.20230  0.97177  0.64899  1.0000
  H   H5        1.0  0.83632  0.42438  0.20976  1.0000
  H   H6        1.0  0.66367  0.92438  0.29024  1.0000
  H   H7        1.0  0.16368  0.57562  0.79023  1.0000
  H   H8        1.0  0.33631  0.07562  0.70977  1.0000
  H   H9        1.0  0.47029  0.53781  0.20879  1.0000
  H   H10       1.0  0.02971  0.03781  0.29121  1.0000
  H   H11       1.0  0.52973  0.46219  0.79121  1.0000
  H   H12       1.0  0.97028  0.96219  0.70879  1.0000
  H   H13       1.0  0.53203  0.13030  0.23308  1.0000
  H   H14       1.0  0.96794  0.63029  0.26692  1.0000
  H   H15       1.0  0.46796  0.86971  0.76692  1.0000
  H   H16       1.0  0.03204  0.36970  0.73308  1.0000
  H   H17       1.0  0.17239  0.81516  0.13463  1.0000
  H   H18       1.0  0.32760  0.31515  0.36537  1.0000
  H   H19       1.0  0.82760  0.18485  0.86537  1.0000
  H   H20       1.0  0.67241  0.68485  0.63463  1.0000
  H   H21       1.0  0.83935  0.88852  0.17047  1.0000
  H   H22       1.0  0.66064  0.38852  0.32953  1.0000
  H   H23       1.0  0.16065  0.11148  0.82953  1.0000
  H   H24       1.0  0.33936  0.61149  0.67047  1.0000
  H   H25       1.0  0.21075  0.84646  0.20694  1.0000
  H   H26       1.0  0.28925  0.34646  0.29306  1.0000
  H   H27       1.0  0.78925  0.15353  0.79306  1.0000
  H   H28       1.0  0.71076  0.65354  0.70694  1.0000
  H   H29       1.0  0.81413  0.21781  0.05198  1.0000
  H   H30       1.0  0.68587  0.71781  0.44802  1.0000
  H   H31       1.0  0.18588  0.78219  0.94802  1.0000
  H   H32       1.0  0.31414  0.28220  0.55198  1.0000
  H   H33       1.0  0.72969  0.03052  0.08428  1.0000
  H   H34       1.0  0.77032  0.53052  0.41572  1.0000
  H   H35       1.0  0.27032  0.96947  0.91572  1.0000
  H   H36       1.0  0.22970  0.46949  0.58428  1.0000
  H   H37       1.0  0.31197  0.09339  0.01376  1.0000
  H   H38       1.0  0.18805  0.59340  0.48624  1.0000
  H   H39       1.0  0.68806  0.90661  0.98624  1.0000
  H   H40       1.0  0.81197  0.40661  0.51376  1.0000
  H   H41       1.0  0.20634  0.90285  0.04211  1.0000
  H   H42       1.0  0.29368  0.40284  0.45789  1.0000
  H   H43       1.0  0.79368  0.09716  0.95789  1.0000
  H   H44       1.0  0.70634  0.59716  0.54210  1.0000
  C   C1        1.0  0.62236  0.45855  0.18424  1.0000
  C   C2        1.0  0.87764  0.95855  0.31576  1.0000
  C   C3        1.0  0.37764  0.54145  0.81576  1.0000
  C   C4        1.0  0.12235  0.04145  0.68424  1.0000
  C   C5        1.0  0.44325  0.31062  0.16599  1.0000
  C   C6        1.0  0.05672  0.81062  0.33401  1.0000
  C   C7        1.0  0.55674  0.68939  0.83401  1.0000
  C   C8        1.0  0.94326  0.18939  0.66599  1.0000
  C   C9        1.0  0.41564  0.16267  0.19398  1.0000
  C   C10       1.0  0.08435  0.66266  0.30602  1.0000
  C   C11       1.0  0.58435  0.83733  0.80602  1.0000
  C   C12       1.0  0.91563  0.33733  0.69398  1.0000
  C   C13       1.0  0.21558  0.06441  0.16086  1.0000
  C   C14       1.0  0.28441  0.56441  0.33914  1.0000
  C   C15       1.0  0.78441  0.93559  0.83914  1.0000
  C   C16       1.0  0.71559  0.43559  0.66086  1.0000
  C   C17       1.0  0.10447  0.89495  0.16841  1.0000
  C   C18       1.0  0.39552  0.39495  0.33159  1.0000
  C   C19       1.0  0.89553  0.10505  0.83159  1.0000
  C   C20       1.0  0.60447  0.60505  0.66841  1.0000
  C   C21       1.0  0.92429  0.10630  0.06891  1.0000
  C   C22       1.0  0.57572  0.60630  0.43109  1.0000
  C   C23       1.0  0.07572  0.89369  0.93109  1.0000
  C   C24       1.0  0.42429  0.39371  0.56891  1.0000
  C   C25       1.0  0.10849  0.01729  0.02531  1.0000
  C   C26       1.0  0.39153  0.51729  0.47469  1.0000
  C   C27       1.0  0.89153  0.98271  0.97469  1.0000
  C   C28       1.0  0.60849  0.48271  0.52531  1.0000
  Br  Br1       1.0  0.74501  0.62716  0.04623  1.0000
  Br  Br2       1.0  0.75498  0.12714  0.45377  1.0000
  Br  Br3       1.0  0.25498  0.37285  0.95377  1.0000
  Br  Br4       1.0  0.24502  0.87286  0.54623  1.0000
  N   N1        1.0  0.26988  0.30412  0.11779  1.0000
  N   N2        1.0  0.23011  0.80412  0.38221  1.0000
  N   N3        1.0  0.73013  0.69588  0.88221  1.0000
  N   N4        1.0  0.76988  0.19589  0.61779  1.0000
  N   N5        1.0  0.13015  0.15426  0.11582  1.0000
  N   N6        1.0  0.36984  0.65425  0.38418  1.0000
  N   N7        1.0  0.86985  0.84574  0.88418  1.0000
  N   N8        1.0  0.63016  0.34575  0.61582  1.0000
