data_image0
_chemical_formula_structural       Cu4H22C26I4N6O6
_chemical_formula_sum              "Cu4 H22 C26 I4 N6 O6"
_cell_length_a       5.97583
_cell_length_b       9.86626
_cell_length_c       13.719
_cell_angle_alpha    80.9832
_cell_angle_beta     88.0924
_cell_angle_gamma    84.0218

_space_group_name_H-M_alt    "P 1"
_space_group_IT_number       1

loop_
  _space_group_symop_operation_xyz
  'x, y, z'

loop_
  _atom_site_type_symbol
  _atom_site_label
  _atom_site_symmetry_multiplicity
  _atom_site_fract_x
  _atom_site_fract_y
  _atom_site_fract_z
  _atom_site_occupancy
  Cu  Cu1       1.0  0.18095  0.68487  0.62378  1.0000
  Cu  Cu2       1.0  0.81905  0.31512  0.37622  1.0000
  Cu  Cu3       1.0  0.78123  0.50040  0.49028  1.0000
  Cu  Cu4       1.0  0.21876  0.49960  0.50972  1.0000
  H   H1        1.0  0.97544  0.98593  0.81918  1.0000
  H   H2        1.0  0.02456  0.01408  0.18081  1.0000
  H   H3        1.0  0.57199  0.81891  0.56130  1.0000
  H   H4        1.0  0.42800  0.18109  0.43869  1.0000
  H   H5        1.0  0.75649  0.03061  0.58418  1.0000
  H   H6        1.0  0.24352  0.96937  0.41582  1.0000
  H   H7        1.0  0.57118  0.17583  0.70707  1.0000
  H   H8        1.0  0.42883  0.82417  0.29293  1.0000
  H   H9        1.0  0.88944  0.91661  0.96481  1.0000
  H   H10       1.0  0.11055  0.08340  0.03518  1.0000
  H   H11       1.0  0.59083  0.89642  0.09324  1.0000
  H   H12       1.0  0.40916  0.10358  0.90676  1.0000
  H   H13       1.0  0.28478  0.61294  0.94236  1.0000
  H   H14       1.0  0.71519  0.38707  0.05764  1.0000
  H   H15       1.0  0.58412  0.63519  0.81127  1.0000
  H   H16       1.0  0.41585  0.36483  0.18873  1.0000
  H   H17       1.0  0.82993  0.56313  0.15845  1.0000
  H   H18       1.0  0.17008  0.43688  0.84156  1.0000
  H   H19       1.0  0.86367  0.72954  0.19289  1.0000
  H   H20       1.0  0.13634  0.27047  0.80712  1.0000
  H   H21       1.0  0.02013  0.57609  0.25372  1.0000
  H   H22       1.0  0.97987  0.42392  0.74629  1.0000
  C   C1        1.0  0.23027  0.93478  0.72695  1.0000
  C   C2        1.0  0.76974  0.06521  0.27305  1.0000
  C   C3        1.0  0.50235  0.88780  0.61209  1.0000
  C   C4        1.0  0.49766  0.11219  0.38791  1.0000
  C   C5        1.0  0.60462  0.00304  0.62538  1.0000
  C   C6        1.0  0.39538  0.99695  0.37462  1.0000
  C   C7        1.0  0.50309  0.08231  0.69345  1.0000
  C   C8        1.0  0.49692  0.91767  0.30655  1.0000
  C   C9        1.0  0.92780  0.78840  0.79754  1.0000
  C   C10       1.0  0.07219  0.21161  0.20245  1.0000
  C   C11       1.0  0.75242  0.78039  0.87749  1.0000
  C   C12       1.0  0.24756  0.21962  0.12251  1.0000
  C   C13       1.0  0.75556  0.85200  0.95800  1.0000
  C   C14       1.0  0.24443  0.14800  0.04200  1.0000
  C   C15       1.0  0.58776  0.84098  0.03062  1.0000
  C   C16       1.0  0.41224  0.15902  0.96938  1.0000
  C   C17       1.0  0.41601  0.75627  0.02448  1.0000
  C   C18       1.0  0.58400  0.24374  0.97552  1.0000
  C   C19       1.0  0.41693  0.68008  0.94612  1.0000
  C   C20       1.0  0.58306  0.31992  0.05388  1.0000
  C   C21       1.0  0.58366  0.69251  0.87309  1.0000
  C   C22       1.0  0.41633  0.30750  0.12691  1.0000
  C   C23       1.0  0.23356  0.75346  0.10087  1.0000
  C   C24       1.0  0.76646  0.24653  0.89913  1.0000
  C   C25       1.0  0.94637  0.62785  0.18388  1.0000
  C   C26       1.0  0.05363  0.37215  0.81612  1.0000
  I   I1        1.0  0.96223  0.73562  0.46180  1.0000
  I   I2        1.0  0.03778  0.26438  0.53820  1.0000
  I   I3        1.0  0.48812  0.51081  0.34727  1.0000
  I   I4        1.0  0.51188  0.48917  0.65273  1.0000
  N   N1        1.0  0.31131  0.85361  0.66079  1.0000
  N   N2        1.0  0.68870  0.14639  0.33922  1.0000
  N   N3        1.0  0.31923  0.04706  0.74587  1.0000
  N   N4        1.0  0.68077  0.95294  0.25414  1.0000
  N   N5        1.0  0.03851  0.90545  0.78370  1.0000
  N   N6        1.0  0.96148  0.09455  0.21630  1.0000
  O   O1        1.0  0.96645  0.69150  0.74904  1.0000
  O   O2        1.0  0.03352  0.30851  0.25095  1.0000
  O   O3        1.0  0.18678  0.84731  0.15017  1.0000
  O   O4        1.0  0.81325  0.15269  0.84983  1.0000
  O   O5        1.0  0.12482  0.64014  0.10918  1.0000
  O   O6        1.0  0.87520  0.35986  0.89083  1.0000
