data_image0
_chemical_formula_structural       Cu2H28C24N12O12
_chemical_formula_sum              "Cu2 H28 C24 N12 O12"
_cell_length_a       7.94271
_cell_length_b       10.1438
_cell_length_c       10.036
_cell_angle_alpha    106.121
_cell_angle_beta     89.9978
_cell_angle_gamma    90.0002

_space_group_name_H-M_alt    "P 1"
_space_group_IT_number       1

loop_
  _space_group_symop_operation_xyz
  'x, y, z'

loop_
  _atom_site_type_symbol
  _atom_site_label
  _atom_site_symmetry_multiplicity
  _atom_site_fract_x
  _atom_site_fract_y
  _atom_site_fract_z
  _atom_site_occupancy
  Cu  Cu1       1.0  1.00000  0.00000  0.00000  1.0000
  Cu  Cu2       1.0  0.50000  0.50000  0.50000  1.0000
  H   H1        1.0  0.84184  0.25517  0.02179  1.0000
  H   H2        1.0  0.65815  0.75516  0.52179  1.0000
  H   H3        1.0  0.15817  0.74484  0.97821  1.0000
  H   H4        1.0  0.34185  0.24484  0.47821  1.0000
  H   H5        1.0  0.75054  0.28463  0.60769  1.0000
  H   H6        1.0  0.74947  0.78463  0.10768  1.0000
  H   H7        1.0  0.24947  0.71538  0.39232  1.0000
  H   H8        1.0  0.25054  0.21537  0.89232  1.0000
  H   H9        1.0  0.73695  0.39611  0.87029  1.0000
  H   H10       1.0  0.76305  0.89610  0.37029  1.0000
  H   H11       1.0  0.26307  0.60390  0.12971  1.0000
  H   H12       1.0  0.23694  0.10390  0.62971  1.0000
  H   H13       1.0  0.05555  0.90977  0.55774  1.0000
  H   H14       1.0  0.44445  0.40977  0.05773  1.0000
  H   H15       1.0  0.94444  0.09023  0.44227  1.0000
  H   H16       1.0  0.55556  0.59023  0.94227  1.0000
  H   H17       1.0  0.95337  0.71178  0.81835  1.0000
  H   H18       1.0  0.54661  0.21178  0.31835  1.0000
  H   H19       1.0  0.04663  0.28821  0.18164  1.0000
  H   H20       1.0  0.45338  0.78822  0.68165  1.0000
  H   H21       1.0  0.09955  0.89279  0.72383  1.0000
  H   H22       1.0  0.40044  0.39279  0.22383  1.0000
  H   H23       1.0  0.90044  0.10720  0.27617  1.0000
  H   H24       1.0  0.59957  0.60721  0.77616  1.0000
  H   H25       1.0  0.79297  0.80682  0.82283  1.0000
  H   H26       1.0  0.70703  0.30681  0.32281  1.0000
  H   H27       1.0  0.20704  0.19317  0.17718  1.0000
  H   H28       1.0  0.29296  0.69318  0.67718  1.0000
  C   C1        1.0  0.37848  0.98115  0.95909  1.0000
  C   C2        1.0  0.12151  0.48114  0.45908  1.0000
  C   C3        1.0  0.62152  0.01885  0.04091  1.0000
  C   C4        1.0  0.87848  0.51885  0.54091  1.0000
  C   C5        1.0  0.44989  0.05070  0.09761  1.0000
  C   C6        1.0  0.05011  0.55070  0.59761  1.0000
  C   C7        1.0  0.55011  0.94930  0.90239  1.0000
  C   C8        1.0  0.94988  0.44930  0.40238  1.0000
  C   C9        1.0  0.93989  0.04701  0.71747  1.0000
  C   C10       1.0  0.56011  0.54700  0.21746  1.0000
  C   C11       1.0  0.06011  0.95299  0.28253  1.0000
  C   C12       1.0  0.43989  0.45300  0.78253  1.0000
  C   C13       1.0  0.85170  0.21841  0.90945  1.0000
  C   C14       1.0  0.64829  0.71841  0.40945  1.0000
  C   C15       1.0  0.14829  0.78159  0.09055  1.0000
  C   C16       1.0  0.35171  0.28159  0.59055  1.0000
  C   C17       1.0  0.80201  0.23521  0.68269  1.0000
  C   C18       1.0  0.69799  0.73520  0.18268  1.0000
  C   C19       1.0  0.19799  0.76480  0.31731  1.0000
  C   C20       1.0  0.30202  0.26480  0.81731  1.0000
  C   C21       1.0  0.79094  0.29526  0.82550  1.0000
  C   C22       1.0  0.70905  0.79526  0.32549  1.0000
  C   C23       1.0  0.20907  0.70474  0.17451  1.0000
  C   C24       1.0  0.29095  0.20474  0.67451  1.0000
  N   N1        1.0  0.92401  0.09462  0.85829  1.0000
  N   N2        1.0  0.57598  0.59461  0.35829  1.0000
  N   N3        1.0  0.07599  0.90538  0.14171  1.0000
  N   N4        1.0  0.42402  0.40539  0.64171  1.0000
  N   N5        1.0  0.87559  0.11397  0.62911  1.0000
  N   N6        1.0  0.62441  0.61397  0.12911  1.0000
  N   N7        1.0  0.12441  0.88603  0.37089  1.0000
  N   N8        1.0  0.37560  0.38603  0.87089  1.0000
  N   N9        1.0  0.02234  0.92913  0.66120  1.0000
  N   N10       1.0  0.47765  0.42913  0.16119  1.0000
  N   N11       1.0  0.97765  0.07086  0.33881  1.0000
  N   N12       1.0  0.52235  0.57087  0.83880  1.0000
  O   O1        1.0  0.87654  0.77752  0.88177  1.0000
  O   O2        1.0  0.62346  0.27751  0.38176  1.0000
  O   O3        1.0  0.12346  0.22247  0.11823  1.0000
  O   O4        1.0  0.37654  0.72248  0.61824  1.0000
  O   O5        1.0  0.23514  0.95504  0.90394  1.0000
  O   O6        1.0  0.26485  0.45503  0.40394  1.0000
  O   O7        1.0  0.76485  0.04496  0.09606  1.0000
  O   O8        1.0  0.73515  0.54496  0.59605  1.0000
  O   O9        1.0  0.39279  0.11296  0.21475  1.0000
  O   O10       1.0  0.10720  0.61296  0.71475  1.0000
  O   O11       1.0  0.60721  0.88704  0.78526  1.0000
  O   O12       1.0  0.89279  0.38703  0.28524  1.0000
