data_image0
_chemical_formula_structural       Cu2H44C36N4O10
_chemical_formula_sum              "Cu2 H44 C36 N4 O10"
_cell_length_a       8.83151
_cell_length_b       10.6923
_cell_length_c       10.9286
_cell_angle_alpha    70.0949
_cell_angle_beta     72.1431
_cell_angle_gamma    68.0826

_space_group_name_H-M_alt    "P 1"
_space_group_IT_number       1

loop_
  _space_group_symop_operation_xyz
  'x, y, z'

loop_
  _atom_site_type_symbol
  _atom_site_label
  _atom_site_symmetry_multiplicity
  _atom_site_fract_x
  _atom_site_fract_y
  _atom_site_fract_z
  _atom_site_occupancy
  Cu  Cu1       1.0  1.00000  0.50000  0.00000  1.0000
  Cu  Cu2       1.0  0.50001  0.00000  0.50000  1.0000
  H   H1        1.0  0.71234  0.79371  0.98160  1.0000
  H   H2        1.0  0.28765  0.20629  0.01840  1.0000
  H   H3        1.0  0.72066  0.91939  0.04801  1.0000
  H   H4        1.0  0.27933  0.08061  0.95199  1.0000
  H   H5        1.0  0.99410  0.92501  0.89423  1.0000
  H   H6        1.0  0.00589  0.07499  0.10578  1.0000
  H   H7        1.0  0.71789  0.96061  0.75522  1.0000
  H   H8        1.0  0.28212  0.03940  0.24478  1.0000
  H   H9        1.0  0.74589  0.08258  0.81488  1.0000
  H   H10       1.0  0.25411  0.91742  0.18513  1.0000
  H   H11       1.0  0.55359  0.04166  0.87139  1.0000
  H   H12       1.0  0.44641  0.95834  0.12861  1.0000
  H   H13       1.0  0.27814  0.25766  0.35882  1.0000
  H   H14       1.0  0.72187  0.74234  0.64117  1.0000
  H   H15       1.0  0.16536  0.42187  0.70005  1.0000
  H   H16       1.0  0.83464  0.57813  0.29994  1.0000
  H   H17       1.0  0.28290  0.40467  0.12864  1.0000
  H   H18       1.0  0.71710  0.59532  0.87136  1.0000
  H   H19       1.0  0.71763  0.13664  0.51640  1.0000
  H   H20       1.0  0.28239  0.86337  0.48360  1.0000
  H   H21       1.0  0.20258  0.22108  0.61510  1.0000
  H   H22       1.0  0.79744  0.77891  0.38489  1.0000
  H   H23       1.0  0.30440  0.59987  0.68624  1.0000
  H   H24       1.0  0.69559  0.40013  0.31377  1.0000
  H   H25       1.0  0.52487  0.54885  0.66777  1.0000
  H   H26       1.0  0.47511  0.45116  0.33224  1.0000
  H   H27       1.0  0.70167  0.33569  0.59388  1.0000
  H   H28       1.0  0.29833  0.66432  0.40612  1.0000
  H   H29       1.0  0.77457  0.12719  0.01728  1.0000
  H   H30       1.0  0.22543  0.87280  0.98271  1.0000
  H   H31       1.0  0.75183  0.99214  0.25323  1.0000
  H   H32       1.0  0.24818  0.00786  0.74677  1.0000
  H   H33       1.0  0.35518  0.55360  0.90337  1.0000
  H   H34       1.0  0.64481  0.44640  0.09664  1.0000
  H   H35       1.0  0.28727  0.41864  0.90323  1.0000
  H   H36       1.0  0.71272  0.58135  0.09677  1.0000
  H   H37       1.0  0.65110  0.40097  0.87881  1.0000
  H   H38       1.0  0.34889  0.59903  0.12118  1.0000
  H   H39       1.0  0.59628  0.27489  0.85047  1.0000
  H   H40       1.0  0.40371  0.72511  0.14953  1.0000
  H   H41       1.0  0.06687  0.11704  0.45855  1.0000
  H   H42       1.0  0.93313  0.88296  0.54145  1.0000
  H   H43       1.0  0.08514  0.00786  0.59709  1.0000
  H   H44       1.0  0.91486  0.99215  0.40291  1.0000
  C   C1        1.0  0.00994  0.74302  0.05652  1.0000
  C   C2        1.0  0.99004  0.25697  0.94348  1.0000
  C   C3        1.0  0.75965  0.88262  0.95758  1.0000
  C   C4        1.0  0.24035  0.11738  0.04242  1.0000
  C   C5        1.0  0.00959  0.76689  0.80834  1.0000
  C   C6        1.0  0.99041  0.23312  0.19167  1.0000
  C   C7        1.0  0.95275  0.83173  0.92572  1.0000
  C   C8        1.0  0.04725  0.16827  0.07429  1.0000
  C   C9        1.0  0.68946  0.99817  0.84380  1.0000
  C   C10       1.0  0.31054  0.00183  0.15620  1.0000
  C   C11       1.0  0.43136  0.39645  0.65456  1.0000
  C   C12       1.0  0.56864  0.60355  0.34544  1.0000
  C   C13       1.0  0.38694  0.23353  0.28026  1.0000
  C   C14       1.0  0.61306  0.76647  0.71974  1.0000
  C   C15       1.0  0.29047  0.36240  0.65892  1.0000
  C   C16       1.0  0.70954  0.63759  0.34108  1.0000
  C   C17       1.0  0.39125  0.31512  0.15009  1.0000
  C   C18       1.0  0.60875  0.68488  0.84990  1.0000
  C   C19       1.0  0.59812  0.20273  0.55780  1.0000
  C   C20       1.0  0.40190  0.79728  0.44219  1.0000
  C   C21       1.0  0.30998  0.24971  0.61311  1.0000
  C   C22       1.0  0.69003  0.75029  0.38688  1.0000
  C   C23       1.0  0.41415  0.51209  0.71115  1.0000
  C   C24       1.0  0.58584  0.48791  0.28885  1.0000
  C   C25       1.0  0.58724  0.31403  0.60165  1.0000
  C   C26       1.0  0.41277  0.68597  0.39835  1.0000
  C   C27       1.0  0.66271  0.16011  0.09048  1.0000
  C   C28       1.0  0.33729  0.83988  0.90951  1.0000
  C   C29       1.0  0.65078  0.08443  0.22206  1.0000
  C   C30       1.0  0.34922  0.91557  0.77794  1.0000
  C   C31       1.0  0.53154  0.27812  0.05117  1.0000
  C   C32       1.0  0.46846  0.72187  0.94883  1.0000
  C   C33       1.0  0.39253  0.46292  0.86323  1.0000
  C   C34       1.0  0.60746  0.53708  0.13677  1.0000
  C   C35       1.0  0.54876  0.35453  0.90666  1.0000
  C   C36       1.0  0.45124  0.64547  0.09334  1.0000
  N   N1        1.0  0.51407  0.11992  0.31570  1.0000
  N   N2        1.0  0.48593  0.88008  0.68430  1.0000
  N   N3        1.0  0.46203  0.17016  0.56438  1.0000
  N   N4        1.0  0.53799  0.82984  0.43562  1.0000
  O   O1        1.0  0.04672  0.60782  0.08739  1.0000
  O   O2        1.0  0.95325  0.39219  0.91262  1.0000
  O   O3        1.0  0.01450  0.80578  0.13239  1.0000
  O   O4        1.0  0.98548  0.19423  0.86762  1.0000
  O   O5        1.0  0.01139  0.64029  0.82848  1.0000
  O   O6        1.0  0.98862  0.35971  0.17151  1.0000
  O   O7        1.0  0.04334  0.84172  0.69187  1.0000
  O   O8        1.0  0.95665  0.15829  0.30814  1.0000
  O   O9        1.0  0.13190  0.08000  0.52878  1.0000
  O   O10       1.0  0.86810  0.92001  0.47121  1.0000
