data_image0
_chemical_formula_structural       Co2H20C28N6O10
_chemical_formula_sum              "Co2 H20 C28 N6 O10"
_cell_length_a       7.57126
_cell_length_b       7.68105
_cell_length_c       11.7442
_cell_angle_alpha    98.3497
_cell_angle_beta     95.3034
_cell_angle_gamma    96.724

_space_group_name_H-M_alt    "P 1"
_space_group_IT_number       1

loop_
  _space_group_symop_operation_xyz
  'x, y, z'

loop_
  _atom_site_type_symbol
  _atom_site_label
  _atom_site_symmetry_multiplicity
  _atom_site_fract_x
  _atom_site_fract_y
  _atom_site_fract_z
  _atom_site_occupancy
  Co  Co1       1.0  0.47711  0.08401  0.68449  1.0000
  Co  Co2       1.0  0.56589  0.90546  0.31617  1.0000
  H   H1        1.0  0.72395  0.09695  0.89277  1.0000
  H   H2        1.0  0.26244  0.91462  0.11451  1.0000
  H   H3        1.0  0.21495  0.48002  0.12312  1.0000
  H   H4        1.0  0.76417  0.51988  0.87745  1.0000
  H   H5        1.0  0.73153  0.21238  0.10464  1.0000
  H   H6        1.0  0.24289  0.78874  0.90306  1.0000
  H   H7        1.0  0.43224  0.19628  0.48756  1.0000
  H   H8        1.0  0.58508  0.80309  0.51349  1.0000
  H   H9        1.0  0.26812  0.04096  0.49745  1.0000
  H   H10       1.0  0.75248  0.95983  0.51301  1.0000
  H   H11       1.0  0.47356  0.36098  0.17396  1.0000
  H   H12       1.0  0.49440  0.63556  0.82901  1.0000
  H   H13       1.0  0.21491  0.23355  0.82313  1.0000
  H   H14       1.0  0.78017  0.79017  0.17058  1.0000
  H   H15       1.0  0.00602  0.10109  0.59237  1.0000
  H   H16       1.0  0.02050  0.89592  0.40861  1.0000
  H   H17       1.0  0.44478  0.50566  0.58347  1.0000
  H   H18       1.0  0.56801  0.50318  0.41584  1.0000
  H   H19       1.0  0.94415  0.65171  0.68713  1.0000
  H   H20       1.0  0.06083  0.34091  0.30841  1.0000
  C   C1        1.0  0.61192  0.15477  0.92780  1.0000
  C   C2        1.0  0.37229  0.85580  0.07757  1.0000
  C   C3        1.0  0.61604  0.22254  0.04455  1.0000
  C   C4        1.0  0.36180  0.78143  0.96106  1.0000
  C   C5        1.0  0.47313  0.30337  0.08353  1.0000
  C   C6        1.0  0.50153  0.69810  0.91909  1.0000
  C   C7        1.0  0.32601  0.31287  0.00331  1.0000
  C   C8        1.0  0.65409  0.69389  0.99613  1.0000
  C   C9        1.0  0.32745  0.23539  0.88773  1.0000
  C   C10       1.0  0.66086  0.78154  0.11012  1.0000
  C   C11       1.0  0.03867  0.42684  0.97315  1.0000
  C   C12       1.0  0.94060  0.57744  0.02589  1.0000
  C   C13       1.0  0.95444  0.37090  0.63892  1.0000
  C   C14       1.0  0.06138  0.62290  0.35751  1.0000
  C   C15       1.0  0.05811  0.24068  0.59919  1.0000
  C   C16       1.0  0.96256  0.75729  0.39896  1.0000
  C   C17       1.0  0.23295  0.28847  0.57636  1.0000
  C   C18       1.0  0.78570  0.71445  0.42255  1.0000
  C   C19       1.0  0.30563  0.46697  0.59516  1.0000
  C   C20       1.0  0.70739  0.53731  0.40263  1.0000
  C   C21       1.0  0.20105  0.59692  0.63440  1.0000
  C   C22       1.0  0.80575  0.40155  0.36241  1.0000
  C   C23       1.0  0.02462  0.54999  0.65586  1.0000
  C   C24       1.0  0.98300  0.44459  0.34036  1.0000
  C   C25       1.0  0.77238  0.31475  0.66932  1.0000
  C   C26       1.0  0.24834  0.66295  0.32400  1.0000
  C   C27       1.0  0.28101  0.78565  0.65602  1.0000
  C   C28       1.0  0.71213  0.21603  0.34451  1.0000
  N   N1        1.0  0.46928  0.16177  0.85171  1.0000
  N   N2        1.0  0.52042  0.85582  0.15062  1.0000
  N   N3        1.0  0.19007  0.40872  0.03976  1.0000
  N   N4        1.0  0.78885  0.59596  0.95904  1.0000
  N   N5        1.0  0.34099  0.15548  0.54187  1.0000
  N   N6        1.0  0.67916  0.84932  0.46278  1.0000
  O   O1        1.0  0.98092  0.33555  0.87863  1.0000
  O   O2        1.0  0.99882  0.66912  0.12029  1.0000
  O   O3        1.0  0.71876  0.14501  0.64511  1.0000
  O   O4        1.0  0.32876  0.82443  0.35323  1.0000
  O   O5        1.0  0.67890  0.42381  0.71588  1.0000
  O   O6        1.0  0.31739  0.54026  0.26934  1.0000
  O   O7        1.0  0.19273  0.90902  0.68947  1.0000
  O   O8        1.0  0.78841  0.07907  0.30965  1.0000
  O   O9        1.0  0.44929  0.82138  0.64158  1.0000
  O   O10       1.0  0.54820  0.18890  0.36277  1.0000
