data_image0
_chemical_formula_structural       Si2Ag2H28C14S8O6F6
_chemical_formula_sum              "Si2 Ag2 H28 C14 S8 O6 F6"
_cell_length_a       6.63117
_cell_length_b       8.55821
_cell_length_c       13.5046
_cell_angle_alpha    89.9997
_cell_angle_beta     92.1131
_cell_angle_gamma    90.0008

_space_group_name_H-M_alt    "P 1"
_space_group_IT_number       1

loop_
  _space_group_symop_operation_xyz
  'x, y, z'

loop_
  _atom_site_type_symbol
  _atom_site_label
  _atom_site_symmetry_multiplicity
  _atom_site_fract_x
  _atom_site_fract_y
  _atom_site_fract_z
  _atom_site_occupancy
  Si  Si1       1.0  0.67916  0.26900  0.87691  1.0000
  Si  Si2       1.0  0.32085  0.76900  0.12309  1.0000
  Ag  Ag1       1.0  0.28123  0.94129  0.41448  1.0000
  Ag  Ag2       1.0  0.71877  0.44129  0.58551  1.0000
  H   H1        1.0  0.14722  0.26376  0.56768  1.0000
  H   H2        1.0  0.85279  0.76376  0.43232  1.0000
  H   H3        1.0  0.21365  0.08495  0.62875  1.0000
  H   H4        1.0  0.78635  0.58496  0.37125  1.0000
  H   H5        1.0  0.51832  0.07251  0.76437  1.0000
  H   H6        1.0  0.48168  0.57251  0.23563  1.0000
  H   H7        1.0  0.60144  0.95153  0.60179  1.0000
  H   H8        1.0  0.39855  0.45154  0.39821  1.0000
  H   H9        1.0  0.76290  0.03881  0.51319  1.0000
  H   H10       1.0  0.23710  0.53881  0.48681  1.0000
  H   H11       1.0  0.94205  0.16206  0.99112  1.0000
  H   H12       1.0  0.05795  0.66205  0.00888  1.0000
  H   H13       1.0  0.98874  0.10842  0.86673  1.0000
  H   H14       1.0  0.01126  0.60841  0.13327  1.0000
  H   H15       1.0  0.80353  0.00639  0.93332  1.0000
  H   H16       1.0  0.19647  0.50638  0.06668  1.0000
  H   H17       1.0  0.93014  0.44817  0.80672  1.0000
  H   H18       1.0  0.06986  0.94817  0.19328  1.0000
  H   H19       1.0  0.86482  0.50717  0.92684  1.0000
  H   H20       1.0  0.13518  0.00716  0.07316  1.0000
  H   H21       1.0  0.70089  0.54985  0.82346  1.0000
  H   H22       1.0  0.29912  0.04985  0.17653  1.0000
  H   H23       1.0  0.51301  0.32397  0.03447  1.0000
  H   H24       1.0  0.48700  0.82397  0.96552  1.0000
  H   H25       1.0  0.38475  0.17140  0.96900  1.0000
  H   H26       1.0  0.61525  0.67139  0.03099  1.0000
  H   H27       1.0  0.34808  0.36877  0.93129  1.0000
  H   H28       1.0  0.65193  0.86877  0.06871  1.0000
  C   C1        1.0  0.27187  0.19708  0.60301  1.0000
  C   C2        1.0  0.72814  0.69709  0.39699  1.0000
  C   C3        1.0  0.57197  0.19233  0.75165  1.0000
  C   C4        1.0  0.42803  0.69233  0.24834  1.0000
  C   C5        1.0  0.65094  0.06188  0.56932  1.0000
  C   C6        1.0  0.34906  0.56189  0.43068  1.0000
  C   C7        1.0  0.87060  0.12177  0.92101  1.0000
  C   C8        1.0  0.12940  0.62177  0.07899  1.0000
  C   C9        1.0  0.80297  0.46121  0.85608  1.0000
  C   C10       1.0  0.19703  0.96120  0.14392  1.0000
  C   C11       1.0  0.46045  0.28456  0.96043  1.0000
  C   C12       1.0  0.53956  0.78456  0.03957  1.0000
  C   C13       1.0  0.76235  0.26390  0.24661  1.0000
  C   C14       1.0  0.23765  0.76390  0.75340  1.0000
  S   S1        1.0  0.44567  0.16212  0.50388  1.0000
  S   S2        1.0  0.55433  0.66212  0.49612  1.0000
  S   S3        1.0  0.36713  0.31330  0.70541  1.0000
  S   S4        1.0  0.63288  0.81330  0.29458  1.0000
  S   S5        1.0  0.77449  0.17732  0.66539  1.0000
  S   S6        1.0  0.22551  0.67732  0.33461  1.0000
  S   S7        1.0  0.96812  0.23883  0.34384  1.0000
  S   S8        1.0  0.03188  0.73884  0.65617  1.0000
  O   O1        1.0  0.94316  0.07518  0.37451  1.0000
  O   O2        1.0  0.05685  0.57517  0.62550  1.0000
  O   O3        1.0  0.91624  0.35212  0.42011  1.0000
  O   O4        1.0  0.08375  0.85210  0.57989  1.0000
  O   O5        1.0  0.15109  0.27237  0.29233  1.0000
  O   O6        1.0  0.84891  0.77236  0.70767  1.0000
  F   F1        1.0  0.57766  0.24630  0.28473  1.0000
  F   F2        1.0  0.42233  0.74630  0.71528  1.0000
  F   F3        1.0  0.77904  0.15947  0.17187  1.0000
  F   F4        1.0  0.22095  0.65948  0.82814  1.0000
  F   F5        1.0  0.76973  0.41024  0.20617  1.0000
  F   F6        1.0  0.23027  0.91024  0.79383  1.0000
