data_image0
_chemical_formula_structural       Cd2H20C24N4O8
_chemical_formula_sum              "Cd2 H20 C24 N4 O8"
_cell_length_a       8.28717
_cell_length_b       8.28718
_cell_length_c       10.722
_cell_angle_alpha    112.753
_cell_angle_beta     112.753
_cell_angle_gamma    90.0068

_space_group_name_H-M_alt    "P 1"
_space_group_IT_number       1

loop_
  _space_group_symop_operation_xyz
  'x, y, z'

loop_
  _atom_site_type_symbol
  _atom_site_label
  _atom_site_symmetry_multiplicity
  _atom_site_fract_x
  _atom_site_fract_y
  _atom_site_fract_z
  _atom_site_occupancy
  Cd  Cd1       1.0  0.74996  0.25004  0.50000  1.0000
  Cd  Cd2       1.0  0.50005  0.49995  0.00000  1.0000
  H   H1        1.0  0.58306  0.37494  0.25006  1.0000
  H   H2        1.0  0.66712  0.87512  0.25002  1.0000
  H   H3        1.0  0.12488  0.33288  0.74998  1.0000
  H   H4        1.0  0.62506  0.41694  0.74994  1.0000
  H   H5        1.0  0.06954  0.15833  0.40652  1.0000
  H   H6        1.0  0.33678  0.24812  0.40632  1.0000
  H   H7        1.0  0.49814  0.81943  0.90642  1.0000
  H   H8        1.0  0.40819  0.08689  0.90638  1.0000
  H   H9        1.0  0.18057  0.50186  0.09358  1.0000
  H   H10       1.0  0.91311  0.59181  0.09362  1.0000
  H   H11       1.0  0.75188  0.66322  0.59368  1.0000
  H   H12       1.0  0.84168  0.93046  0.59348  1.0000
  H   H13       1.0  0.29552  0.95485  0.40815  1.0000
  H   H14       1.0  0.11243  0.45326  0.40789  1.0000
  H   H15       1.0  0.70329  0.04543  0.90803  1.0000
  H   H16       1.0  0.20477  0.86252  0.90806  1.0000
  H   H17       1.0  0.95457  0.29671  0.09197  1.0000
  H   H18       1.0  0.13748  0.79523  0.09194  1.0000
  H   H19       1.0  0.54674  0.88757  0.59211  1.0000
  H   H20       1.0  0.04515  0.70447  0.59185  1.0000
  C   C1        1.0  0.71719  0.37490  0.25001  1.0000
  C   C2        1.0  0.53294  0.87508  0.25000  1.0000
  C   C3        1.0  0.12492  0.46706  0.75000  1.0000
  C   C4        1.0  0.62510  0.28281  0.74999  1.0000
  C   C5        1.0  0.07322  0.05796  0.44937  1.0000
  C   C6        1.0  0.37597  0.39137  0.44920  1.0000
  C   C7        1.0  0.64138  0.82317  0.94928  1.0000
  C   C8        1.0  0.30785  0.12606  0.94926  1.0000
  C   C9        1.0  0.17683  0.35862  0.05071  1.0000
  C   C10       1.0  0.87394  0.69215  0.05074  1.0000
  C   C11       1.0  0.60863  0.62403  0.55080  1.0000
  C   C12       1.0  0.94204  0.92678  0.55063  1.0000
  C   C13       1.0  0.19644  0.94429  0.44980  1.0000
  C   C14       1.0  0.25320  0.50553  0.44959  1.0000
  C   C15       1.0  0.75554  0.94640  0.94971  1.0000
  C   C16       1.0  0.19416  0.00327  0.94970  1.0000
  C   C17       1.0  0.05361  0.24446  0.05029  1.0000
  C   C18       1.0  0.99673  0.80584  0.05030  1.0000
  C   C19       1.0  0.49446  0.74680  0.55041  1.0000
  C   C20       1.0  0.05571  0.80356  0.55020  1.0000
  C   C21       1.0  0.18710  0.81290  0.50000  1.0000
  C   C22       1.0  0.31282  0.68718  0.50000  1.0000
  C   C23       1.0  0.93715  0.93712  0.99999  1.0000
  C   C24       1.0  0.06289  0.06285  0.00001  1.0000
  N   N1        1.0  0.94923  0.05077  0.50000  1.0000
  N   N2        1.0  0.55069  0.44931  0.50000  1.0000
  N   N3        1.0  0.69926  0.69927  0.00003  1.0000
  N   N4        1.0  0.30073  0.30074  0.99997  1.0000
  O   O1        1.0  0.82675  0.30782  0.32823  1.0000
  O   O2        1.0  0.50166  0.02039  0.32827  1.0000
  O   O3        1.0  0.27030  0.57661  0.82834  1.0000
  O   O4        1.0  0.55803  0.25160  0.82824  1.0000
  O   O5        1.0  0.42339  0.72970  0.17167  1.0000
  O   O6        1.0  0.74840  0.44197  0.17176  1.0000
  O   O7        1.0  0.97961  0.49834  0.67173  1.0000
  O   O8        1.0  0.69218  0.17325  0.67177  1.0000
