data_image0
_chemical_formula_structural       H24Pb2C38S4N8O14
_chemical_formula_sum              "H24 Pb2 C38 S4 N8 O14"
_cell_length_a       7.34222
_cell_length_b       9.6012
_cell_length_c       15.2026
_cell_angle_alpha    73.4662
_cell_angle_beta     77.3078
_cell_angle_gamma    77.5459

_space_group_name_H-M_alt    "P 1"
_space_group_IT_number       1

loop_
  _space_group_symop_operation_xyz
  'x, y, z'

loop_
  _atom_site_type_symbol
  _atom_site_label
  _atom_site_symmetry_multiplicity
  _atom_site_fract_x
  _atom_site_fract_y
  _atom_site_fract_z
  _atom_site_occupancy
  H   H1        1.0  0.83198  0.20933  0.12065  1.0000
  H   H2        1.0  0.16803  0.79067  0.87934  1.0000
  H   H3        1.0  0.63497  0.32824  0.59129  1.0000
  H   H4        1.0  0.36503  0.67176  0.40871  1.0000
  H   H5        1.0  0.63831  0.06020  0.66928  1.0000
  H   H6        1.0  0.36168  0.93980  0.33072  1.0000
  H   H7        1.0  0.67617  0.97326  0.83937  1.0000
  H   H8        1.0  0.32384  0.02674  0.16062  1.0000
  H   H9        1.0  0.78246  0.49000  0.04895  1.0000
  H   H10       1.0  0.21754  0.51000  0.95105  1.0000
  H   H11       1.0  0.74960  0.75349  0.95307  1.0000
  H   H12       1.0  0.25040  0.24651  0.04694  1.0000
  H   H13       1.0  0.68349  0.80636  0.79113  1.0000
  H   H14       1.0  0.31649  0.19364  0.20887  1.0000
  H   H15       1.0  0.79430  0.76734  0.07694  1.0000
  H   H16       1.0  0.20572  0.23266  0.92305  1.0000
  H   H17       1.0  0.81126  0.53509  0.20389  1.0000
  H   H18       1.0  0.18874  0.46492  0.79611  1.0000
  H   H19       1.0  0.85028  0.78464  0.39146  1.0000
  H   H20       1.0  0.14972  0.21537  0.60854  1.0000
  H   H21       1.0  0.90779  0.91495  0.58915  1.0000
  H   H22       1.0  0.09220  0.08505  0.41085  1.0000
  H   H23       1.0  0.80911  0.96362  0.50090  1.0000
  H   H24       1.0  0.19088  0.03639  0.49910  1.0000
  Pb  Pb1       1.0  0.64437  0.66252  0.62163  1.0000
  Pb  Pb2       1.0  0.35564  0.33748  0.37837  1.0000
  C   C1        1.0  0.64912  0.28554  0.66444  1.0000
  C   C2        1.0  0.35087  0.71446  0.33556  1.0000
  C   C3        1.0  0.65080  0.13549  0.70867  1.0000
  C   C4        1.0  0.34920  0.86450  0.29133  1.0000
  C   C5        1.0  0.67232  0.08777  0.80106  1.0000
  C   C6        1.0  0.32768  0.91223  0.19894  1.0000
  C   C7        1.0  0.69212  0.18878  0.84803  1.0000
  C   C8        1.0  0.30788  0.81121  0.15197  1.0000
  C   C9        1.0  0.72365  0.14843  0.94218  1.0000
  C   C10       1.0  0.27636  0.85157  0.05781  1.0000
  C   C11       1.0  0.75024  0.25375  0.98406  1.0000
  C   C12       1.0  0.24977  0.74625  0.01594  1.0000
  C   C13       1.0  0.73768  0.40649  0.93829  1.0000
  C   C14       1.0  0.26233  0.59351  0.06170  1.0000
  C   C15       1.0  0.75556  0.51854  0.97766  1.0000
  C   C16       1.0  0.24444  0.48146  0.02235  1.0000
  C   C17       1.0  0.73720  0.66325  0.92561  1.0000
  C   C18       1.0  0.26278  0.33675  0.07439  1.0000
  C   C19       1.0  0.70013  0.69452  0.83466  1.0000
  C   C20       1.0  0.29985  0.30548  0.16535  1.0000
  C   C21       1.0  0.70231  0.44835  0.84467  1.0000
  C   C22       1.0  0.29769  0.55165  0.15533  1.0000
  C   C23       1.0  0.68567  0.33894  0.79866  1.0000
  C   C24       1.0  0.31433  0.66106  0.20134  1.0000
  C   C25       1.0  0.77903  0.03091  0.07983  1.0000
  C   C26       1.0  0.22098  0.96909  0.92017  1.0000
  C   C27       1.0  0.80622  0.90762  0.16141  1.0000
  C   C28       1.0  0.19378  0.09238  0.83859  1.0000
  C   C29       1.0  0.80652  0.76869  0.14660  1.0000
  C   C30       1.0  0.19348  0.23131  0.85340  1.0000
  C   C31       1.0  0.81597  0.64032  0.21670  1.0000
  C   C32       1.0  0.18404  0.35968  0.78330  1.0000
  C   C33       1.0  0.82768  0.64735  0.30584  1.0000
  C   C34       1.0  0.17231  0.35266  0.69417  1.0000
  C   C35       1.0  0.83660  0.78082  0.32242  1.0000
  C   C36       1.0  0.16340  0.21918  0.67758  1.0000
  C   C37       1.0  0.82526  0.91127  0.25158  1.0000
  C   C38       1.0  0.17474  0.08873  0.74843  1.0000
  S   S1        1.0  0.81254  0.07762  0.28789  1.0000
  S   S2        1.0  0.18745  0.92238  0.71211  1.0000
  S   S3        1.0  0.82475  0.48315  0.39712  1.0000
  S   S4        1.0  0.17525  0.51686  0.60289  1.0000
  N   N1        1.0  0.66513  0.38367  0.70794  1.0000
  N   N2        1.0  0.33486  0.61632  0.29207  1.0000
  N   N3        1.0  0.68307  0.59108  0.79608  1.0000
  N   N4        1.0  0.31693  0.40892  0.20391  1.0000
  N   N5        1.0  0.78481  0.17642  0.07130  1.0000
  N   N6        1.0  0.21519  0.82358  0.92869  1.0000
  N   N7        1.0  0.74096  0.01166  0.00191  1.0000
  N   N8        1.0  0.25906  0.98834  0.99809  1.0000
  O   O1        1.0  0.61076  0.14188  0.29361  1.0000
  O   O2        1.0  0.38923  0.85813  0.70639  1.0000
  O   O3        1.0  0.87946  0.03026  0.37773  1.0000
  O   O4        1.0  0.12053  0.96974  0.62227  1.0000
  O   O5        1.0  0.93537  0.17115  0.21611  1.0000
  O   O6        1.0  0.06463  0.82886  0.78388  1.0000
  O   O7        1.0  0.00876  0.39013  0.37784  1.0000
  O   O8        1.0  0.99124  0.60989  0.62216  1.0000
  O   O9        1.0  0.67161  0.41500  0.38817  1.0000
  O   O10       1.0  0.32839  0.58500  0.61184  1.0000
  O   O11       1.0  0.79322  0.52856  0.48392  1.0000
  O   O12       1.0  0.20679  0.47143  0.51609  1.0000
  O   O13       1.0  0.78751  0.92089  0.56877  1.0000
  O   O14       1.0  0.21249  0.07911  0.43123  1.0000
