data_image0
_chemical_formula_structural       Cu2H32C22N4O16
_chemical_formula_sum              "Cu2 H32 C22 N4 O16"
_cell_length_a       6.82259
_cell_length_b       9.76695
_cell_length_c       11.9346
_cell_angle_alpha    72.8202
_cell_angle_beta     73.3887
_cell_angle_gamma    69.5546

_space_group_name_H-M_alt    "P 1"
_space_group_IT_number       1

loop_
  _space_group_symop_operation_xyz
  'x, y, z'

loop_
  _atom_site_type_symbol
  _atom_site_label
  _atom_site_symmetry_multiplicity
  _atom_site_fract_x
  _atom_site_fract_y
  _atom_site_fract_z
  _atom_site_occupancy
  Cu  Cu1       1.0  0.00000  0.00000  1.00000  1.0000
  Cu  Cu2       1.0  0.00000  0.50000  0.50000  1.0000
  H   H1        1.0  0.76105  0.82947  0.83005  1.0000
  H   H2        1.0  0.42056  0.67050  0.67000  1.0000
  H   H3        1.0  0.23895  0.17053  0.16995  1.0000
  H   H4        1.0  0.57944  0.32950  0.33000  1.0000
  H   H5        1.0  0.61969  0.91678  0.94958  1.0000
  H   H6        1.0  0.48610  0.58322  0.55047  1.0000
  H   H7        1.0  0.38031  0.08322  0.05042  1.0000
  H   H8        1.0  0.51390  0.41678  0.44954  1.0000
  H   H9        1.0  0.08355  0.97870  0.67875  1.0000
  H   H10       1.0  0.74110  0.52152  0.82119  1.0000
  H   H11       1.0  0.91645  0.02130  0.32125  1.0000
  H   H12       1.0  0.25890  0.47848  0.17881  1.0000
  H   H13       1.0  0.13769  0.80375  0.78115  1.0000
  H   H14       1.0  0.72289  0.69636  0.71869  1.0000
  H   H15       1.0  0.86231  0.19625  0.21885  1.0000
  H   H16       1.0  0.27711  0.30364  0.28131  1.0000
  H   H17       1.0  0.61453  0.14926  0.87460  1.0000
  H   H18       1.0  0.63851  0.35083  0.62540  1.0000
  H   H19       1.0  0.38547  0.85074  0.12540  1.0000
  H   H20       1.0  0.36149  0.64917  0.37460  1.0000
  H   H21       1.0  0.70051  0.09612  0.73470  1.0000
  H   H22       1.0  0.53139  0.40398  0.76528  1.0000
  H   H23       1.0  0.29949  0.90388  0.26530  1.0000
  H   H24       1.0  0.46861  0.59602  0.23472  1.0000
  H   H25       1.0  0.89561  0.27731  0.82024  1.0000
  H   H26       1.0  0.99316  0.22264  0.67985  1.0000
  H   H27       1.0  0.10439  0.72269  0.17977  1.0000
  H   H28       1.0  0.00684  0.77736  0.32015  1.0000
  H   H29       1.0  0.83023  0.55001  0.10128  1.0000
  H   H30       1.0  0.48154  0.95002  0.39877  1.0000
  H   H31       1.0  0.16977  0.44999  0.89872  1.0000
  H   H32       1.0  0.51845  0.04998  0.60123  1.0000
  C   C1        1.0  0.29349  0.95108  0.79302  1.0000
  C   C2        1.0  0.03782  0.54886  0.70693  1.0000
  C   C3        1.0  0.70651  0.04892  0.20698  1.0000
  C   C4        1.0  0.96218  0.45114  0.29307  1.0000
  C   C5        1.0  0.78176  0.86466  0.90438  1.0000
  C   C6        1.0  0.55081  0.63537  0.59566  1.0000
  C   C7        1.0  0.21824  0.13534  0.09563  1.0000
  C   C8        1.0  0.44919  0.36463  0.40434  1.0000
  C   C9        1.0  0.10145  0.92500  0.77178  1.0000
  C   C10       1.0  0.79837  0.57511  0.72816  1.0000
  C   C11       1.0  0.89856  0.07500  0.22822  1.0000
  C   C12       1.0  0.20162  0.42489  0.27184  1.0000
  C   C13       1.0  0.75532  0.11942  0.80380  1.0000
  C   C14       1.0  0.67860  0.38063  0.69623  1.0000
  C   C15       1.0  0.24468  0.88058  0.19621  1.0000
  C   C16       1.0  0.32139  0.61937  0.30377  1.0000
  C   C17       1.0  0.85054  0.25002  0.75002  1.0000
  C   C18       1.0  0.14946  0.74998  0.24998  1.0000
  C   C19       1.0  0.88459  0.72924  0.99119  1.0000
  C   C20       1.0  0.60497  0.77081  0.50886  1.0000
  C   C21       1.0  0.11541  0.27076  0.00881  1.0000
  C   C22       1.0  0.39503  0.22919  0.49114  1.0000
  N   N1        1.0  0.90122  0.97689  0.85875  1.0000
  N   N2        1.0  0.73694  0.52317  0.64126  1.0000
  N   N3        1.0  0.09878  0.02311  0.14125  1.0000
  N   N4        1.0  0.26306  0.47683  0.35874  1.0000
  O   O1        1.0  0.46611  0.92785  0.71696  1.0000
  O   O2        1.0  0.11124  0.57205  0.78296  1.0000
  O   O3        1.0  0.53389  0.07215  0.28304  1.0000
  O   O4        1.0  0.88876  0.42795  0.21704  1.0000
  O   O5        1.0  0.27332  0.99163  0.88999  1.0000
  O   O6        1.0  0.15518  0.50820  0.61000  1.0000
  O   O7        1.0  0.72668  0.00837  0.11001  1.0000
  O   O8        1.0  0.84482  0.49180  0.39000  1.0000
  O   O9        1.0  0.76555  0.63567  0.03694  1.0000
  O   O10       1.0  0.43811  0.86435  0.46307  1.0000
  O   O11       1.0  0.23445  0.36433  0.96306  1.0000
  O   O12       1.0  0.56189  0.13565  0.53693  1.0000
  O   O13       1.0  0.05559  0.71107  0.01723  1.0000
  O   O14       1.0  0.78381  0.78900  0.48285  1.0000
  O   O15       1.0  0.94441  0.28893  0.98277  1.0000
  O   O16       1.0  0.21619  0.21100  0.51715  1.0000
