data_image0
_chemical_formula_structural       Zn2H20C44N12O10
_chemical_formula_sum              "Zn2 H20 C44 N12 O10"
_cell_length_a       6.1098
_cell_length_b       10.8285
_cell_length_c       14.2417
_cell_angle_alpha    90.1294
_cell_angle_beta     78.8181
_cell_angle_gamma    83.789

_space_group_name_H-M_alt    "P 1"
_space_group_IT_number       1

loop_
  _space_group_symop_operation_xyz
  'x, y, z'

loop_
  _atom_site_type_symbol
  _atom_site_label
  _atom_site_symmetry_multiplicity
  _atom_site_fract_x
  _atom_site_fract_y
  _atom_site_fract_z
  _atom_site_occupancy
  Zn  Zn1       1.0  0.33262  0.17301  0.47003  1.0000
  Zn  Zn2       1.0  0.66739  0.82697  0.52996  1.0000
  H   H1        1.0  0.89780  0.50659  0.44723  1.0000
  H   H2        1.0  0.10219  0.49341  0.55277  1.0000
  H   H3        1.0  0.09598  0.19537  0.78259  1.0000
  H   H4        1.0  0.90403  0.80462  0.21740  1.0000
  H   H5        1.0  0.70465  0.32373  0.51729  1.0000
  H   H6        1.0  0.29534  0.67627  0.48272  1.0000
  H   H7        1.0  0.78043  0.61001  0.30763  1.0000
  H   H8        1.0  0.21956  0.38999  0.69237  1.0000
  H   H9        1.0  0.96593  0.07716  0.92816  1.0000
  H   H10       1.0  0.03407  0.92285  0.07184  1.0000
  H   H11       1.0  0.63310  0.95929  0.93719  1.0000
  H   H12       1.0  0.36689  0.04073  0.06282  1.0000
  H   H13       1.0  0.43543  0.96021  0.79991  1.0000
  H   H14       1.0  0.56455  0.03979  0.20010  1.0000
  H   H15       1.0  0.80224  0.17765  0.21049  1.0000
  H   H16       1.0  0.19775  0.82237  0.78952  1.0000
  H   H17       1.0  0.93509  0.10578  0.35964  1.0000
  H   H18       1.0  0.06492  0.89422  0.64036  1.0000
  H   H19       1.0  0.96355  0.35779  0.12329  1.0000
  H   H20       1.0  0.03645  0.64222  0.87671  1.0000
  C   C1        1.0  0.76570  0.47225  0.41668  1.0000
  C   C2        1.0  0.23431  0.52775  0.58332  1.0000
  C   C3        1.0  0.18371  0.38101  0.22269  1.0000
  C   C4        1.0  0.81628  0.61900  0.77732  1.0000
  C   C5        1.0  0.28469  0.48665  0.17567  1.0000
  C   C6        1.0  0.71531  0.51336  0.82433  1.0000
  C   C7        1.0  0.94992  0.14416  0.78715  1.0000
  C   C8        1.0  0.05009  0.85583  0.21284  1.0000
  C   C9        1.0  0.65335  0.07721  0.71379  1.0000
  C   C10       1.0  0.34665  0.92278  0.28621  1.0000
  C   C11       1.0  0.83973  0.14429  0.70944  1.0000
  C   C12       1.0  0.16028  0.85569  0.29056  1.0000
  C   C13       1.0  0.65921  0.37094  0.45537  1.0000
  C   C14       1.0  0.34080  0.62906  0.54463  1.0000
  C   C15       1.0  0.46524  0.53761  0.21337  1.0000
  C   C16       1.0  0.53476  0.46240  0.78663  1.0000
  C   C17       1.0  0.53070  0.48513  0.29924  1.0000
  C   C18       1.0  0.46931  0.51487  0.70076  1.0000
  C   C19       1.0  0.25480  0.33092  0.30430  1.0000
  C   C20       1.0  0.74519  0.66909  0.69571  1.0000
  C   C21       1.0  0.70049  0.53061  0.33860  1.0000
  C   C22       1.0  0.29951  0.46939  0.66141  1.0000
  C   C23       1.0  0.43022  0.38329  0.34261  1.0000
  C   C24       1.0  0.56978  0.61671  0.65740  1.0000
  C   C25       1.0  0.87707  0.07729  0.86867  1.0000
  C   C26       1.0  0.12293  0.92270  0.13133  1.0000
  C   C27       1.0  0.53577  0.07157  0.63052  1.0000
  C   C28       1.0  0.46423  0.92841  0.36948  1.0000
  C   C29       1.0  0.69051  0.01161  0.87374  1.0000
  C   C30       1.0  0.30948  0.98839  0.12626  1.0000
  C   C31       1.0  0.58021  0.01176  0.79676  1.0000
  C   C32       1.0  0.41979  0.98824  0.20324  1.0000
  C   C33       1.0  0.93003  0.22386  0.23585  1.0000
  C   C34       1.0  0.06997  0.77615  0.76415  1.0000
  C   C35       1.0  0.51329  0.66608  0.08957  1.0000
  C   C36       1.0  0.48672  0.33393  0.91044  1.0000
  C   C37       1.0  0.94387  0.20848  0.62103  1.0000
  C   C38       1.0  0.05614  0.79150  0.37896  1.0000
  C   C39       1.0  0.33057  0.62022  0.05501  1.0000
  C   C40       1.0  0.66942  0.37979  0.94499  1.0000
  C   C41       1.0  0.00507  0.18230  0.31851  1.0000
  C   C42       1.0  0.99493  0.81771  0.68149  1.0000
  C   C43       1.0  0.01925  0.32356  0.18754  1.0000
  C   C44       1.0  0.98074  0.67645  0.81247  1.0000
  N   N1        1.0  0.49354  0.32850  0.41955  1.0000
  N   N2        1.0  0.50646  0.67150  0.58046  1.0000
  N   N3        1.0  0.16648  0.23405  0.35062  1.0000
  N   N4        1.0  0.83352  0.76596  0.64938  1.0000
  N   N5        1.0  0.57960  0.62588  0.17022  1.0000
  N   N6        1.0  0.42041  0.37412  0.82978  1.0000
  N   N7        1.0  0.21513  0.52942  0.09799  1.0000
  N   N8        1.0  0.78485  0.47059  0.90202  1.0000
  N   N9        1.0  0.30570  0.67612  0.97406  1.0000
  N   N10       1.0  0.69428  0.32389  0.02595  1.0000
  N   N11       1.0  0.60260  0.74929  0.02941  1.0000
  N   N12       1.0  0.39740  0.25072  0.97059  1.0000
  O   O1        1.0  0.47353  0.96733  0.61022  1.0000
  O   O2        1.0  0.52648  0.03266  0.38977  1.0000
  O   O3        1.0  0.50007  0.17137  0.58653  1.0000
  O   O4        1.0  0.49993  0.82862  0.41347  1.0000
  O   O5        1.0  0.47388  0.75455  0.95934  1.0000
  O   O6        1.0  0.52611  0.24546  0.04066  1.0000
  O   O7        1.0  0.04829  0.13326  0.55254  1.0000
  O   O8        1.0  0.95174  0.86670  0.44745  1.0000
  O   O9        1.0  0.93413  0.32460  0.62192  1.0000
  O   O10       1.0  0.06589  0.67537  0.37806  1.0000
