data_image0
_chemical_formula_structural       La4H40C20O32
_chemical_formula_sum              "La4 H40 C20 O32"
_cell_length_a       8.9301
_cell_length_b       8.93017
_cell_length_c       14.8973
_cell_angle_alpha    105.854
_cell_angle_beta     105.854
_cell_angle_gamma    95.1448

_space_group_name_H-M_alt    "P 1"
_space_group_IT_number       1

loop_
  _space_group_symop_operation_xyz
  'x, y, z'

loop_
  _atom_site_type_symbol
  _atom_site_label
  _atom_site_symmetry_multiplicity
  _atom_site_fract_x
  _atom_site_fract_y
  _atom_site_fract_z
  _atom_site_occupancy
  La  La1       1.0  0.24694  0.49695  0.99389  1.0000
  La  La2       1.0  0.00306  0.25306  0.50610  1.0000
  La  La3       1.0  0.75306  0.50306  0.00611  1.0000
  La  La4       1.0  0.99695  0.74694  0.49390  1.0000
  H   H1        1.0  0.45709  0.88922  0.84840  1.0000
  H   H2        1.0  0.89149  0.95906  0.84852  1.0000
  H   H3        1.0  0.54094  0.60852  0.65148  1.0000
  H   H4        1.0  0.61078  0.04291  0.65160  1.0000
  H   H5        1.0  0.54290  0.11078  0.15160  1.0000
  H   H6        1.0  0.10852  0.04094  0.15149  1.0000
  H   H7        1.0  0.45906  0.39148  0.34851  1.0000
  H   H8        1.0  0.38923  0.95709  0.34840  1.0000
  H   H9        1.0  0.62397  0.78868  0.87030  1.0000
  H   H10       1.0  0.74650  0.08153  0.87036  1.0000
  H   H11       1.0  0.41847  0.75350  0.62964  1.0000
  H   H12       1.0  0.71133  0.87603  0.62970  1.0000
  H   H13       1.0  0.37602  0.21133  0.12970  1.0000
  H   H14       1.0  0.25350  0.91847  0.12965  1.0000
  H   H15       1.0  0.58153  0.24650  0.37035  1.0000
  H   H16       1.0  0.28868  0.12397  0.37030  1.0000
  H   H17       1.0  0.60215  0.94473  0.96557  1.0000
  H   H18       1.0  0.86355  0.02083  0.96564  1.0000
  H   H19       1.0  0.47918  0.63646  0.53436  1.0000
  H   H20       1.0  0.55527  0.89786  0.53444  1.0000
  H   H21       1.0  0.39785  0.05527  0.03444  1.0000
  H   H22       1.0  0.13645  0.97917  0.03436  1.0000
  H   H23       1.0  0.52082  0.36355  0.46564  1.0000
  H   H24       1.0  0.44474  0.10215  0.46556  1.0000
  H   H25       1.0  0.54035  0.71518  0.16412  1.0000
  H   H26       1.0  0.12375  0.44945  0.16425  1.0000
  H   H27       1.0  0.05055  0.37625  0.33575  1.0000
  H   H28       1.0  0.78482  0.95965  0.33587  1.0000
  H   H29       1.0  0.45965  0.28482  0.83588  1.0000
  H   H30       1.0  0.87624  0.55055  0.83575  1.0000
  H   H31       1.0  0.94944  0.62375  0.66425  1.0000
  H   H32       1.0  0.21519  0.04035  0.66412  1.0000
  H   H33       1.0  0.40789  0.74166  0.21604  1.0000
  H   H34       1.0  0.30813  0.47455  0.21626  1.0000
  H   H35       1.0  0.02544  0.19188  0.28374  1.0000
  H   H36       1.0  0.75833  0.09211  0.28396  1.0000
  H   H37       1.0  0.59212  0.25834  0.78396  1.0000
  H   H38       1.0  0.69187  0.52545  0.78374  1.0000
  H   H39       1.0  0.97455  0.80812  0.71626  1.0000
  H   H40       1.0  0.24167  0.90790  0.71604  1.0000
  C   C1        1.0  0.44487  0.73008  0.93302  1.0000
  C   C2        1.0  0.98841  0.20295  0.93321  1.0000
  C   C3        1.0  0.29705  0.51160  0.56679  1.0000
  C   C4        1.0  0.76991  0.05512  0.56697  1.0000
  C   C5        1.0  0.55513  0.26992  0.06698  1.0000
  C   C6        1.0  0.01158  0.79704  0.06679  1.0000
  C   C7        1.0  0.70295  0.48841  0.43321  1.0000
  C   C8        1.0  0.23008  0.94487  0.43303  1.0000
  C   C9        1.0  0.53646  0.84357  0.90082  1.0000
  C   C10       1.0  0.86455  0.05717  0.90092  1.0000
  C   C11       1.0  0.44283  0.63546  0.59908  1.0000
  C   C12       1.0  0.65643  0.96354  0.59918  1.0000
  C   C13       1.0  0.46354  0.15643  0.09918  1.0000
  C   C14       1.0  0.13545  0.94282  0.09908  1.0000
  C   C15       1.0  0.55717  0.36455  0.40092  1.0000
  C   C16       1.0  0.34358  0.03646  0.40082  1.0000
  C   C17       1.0  0.06693  0.43304  0.74999  1.0000
  C   C18       1.0  0.18338  0.31661  0.74999  1.0000
  C   C19       1.0  0.93305  0.56695  0.25001  1.0000
  C   C20       1.0  0.81662  0.68340  0.25001  1.0000
  O   O1        1.0  0.30469  0.74059  0.93323  1.0000
  O   O2        1.0  0.12885  0.19269  0.93351  1.0000
  O   O3        1.0  0.30731  0.37116  0.56648  1.0000
  O   O4        1.0  0.75940  0.19530  0.56676  1.0000
  O   O5        1.0  0.69530  0.25940  0.06676  1.0000
  O   O6        1.0  0.87115  0.80732  0.06649  1.0000
  O   O7        1.0  0.69268  0.62884  0.43352  1.0000
  O   O8        1.0  0.24060  0.80470  0.43323  1.0000
  O   O9        1.0  0.51254  0.62208  0.96215  1.0000
  O   O10       1.0  0.94981  0.34008  0.96228  1.0000
  O   O11       1.0  0.15992  0.55019  0.53771  1.0000
  O   O12       1.0  0.87793  0.98745  0.53786  1.0000
  O   O13       1.0  0.48745  0.37793  0.03786  1.0000
  O   O14       1.0  0.05018  0.65992  0.03772  1.0000
  O   O15       1.0  0.84008  0.44981  0.46228  1.0000
  O   O16       1.0  0.12208  0.01255  0.46215  1.0000
  O   O17       1.0  0.04245  0.49450  0.83067  1.0000
  O   O18       1.0  0.28832  0.33558  0.83076  1.0000
  O   O19       1.0  0.16442  0.21169  0.66924  1.0000
  O   O20       1.0  0.00551  0.45754  0.66933  1.0000
  O   O21       1.0  0.95755  0.50550  0.16933  1.0000
  O   O22       1.0  0.71168  0.66442  0.16923  1.0000
  O   O23       1.0  0.83558  0.78831  0.33076  1.0000
  O   O24       1.0  0.99450  0.54246  0.33067  1.0000
  O   O25       1.0  0.42541  0.72374  0.15267  1.0000
  O   O26       1.0  0.22723  0.42943  0.15282  1.0000
  O   O27       1.0  0.07057  0.27276  0.34717  1.0000
  O   O28       1.0  0.77626  0.07459  0.34733  1.0000
  O   O29       1.0  0.57460  0.27626  0.84733  1.0000
  O   O30       1.0  0.77276  0.57057  0.84718  1.0000
  O   O31       1.0  0.92943  0.72723  0.65282  1.0000
  O   O32       1.0  0.22374  0.92541  0.65267  1.0000
