data_image0
_chemical_formula_structural       Cu2H14C20I2N2O4
_chemical_formula_sum              "Cu2 H14 C20 I2 N2 O4"
_cell_length_a       4.12453
_cell_length_b       10.0404
_cell_length_c       12.3047
_cell_angle_alpha    94.7875
_cell_angle_beta     97.6723
_cell_angle_gamma    99.5326

_space_group_name_H-M_alt    "P 1"
_space_group_IT_number       1

loop_
  _space_group_symop_operation_xyz
  'x, y, z'

loop_
  _atom_site_type_symbol
  _atom_site_label
  _atom_site_symmetry_multiplicity
  _atom_site_fract_x
  _atom_site_fract_y
  _atom_site_fract_z
  _atom_site_occupancy
  Cu  Cu1       1.0  0.23641  0.10562  0.03635  1.0000
  Cu  Cu2       1.0  0.76361  0.89438  0.96365  1.0000
  H   H1        1.0  0.55076  0.10596  0.54843  1.0000
  H   H2        1.0  0.44922  0.89403  0.45156  1.0000
  H   H3        1.0  0.95150  0.02717  0.22526  1.0000
  H   H4        1.0  0.04852  0.97283  0.77474  1.0000
  H   H5        1.0  0.04853  0.37808  0.46205  1.0000
  H   H6        1.0  0.95146  0.62192  0.53795  1.0000
  H   H7        1.0  0.38139  0.59710  0.42273  1.0000
  H   H8        1.0  0.61860  0.40290  0.57728  1.0000
  H   H9        1.0  0.72246  0.72403  0.30012  1.0000
  H   H10       1.0  0.27754  0.27597  0.69989  1.0000
  H   H11       1.0  0.81670  0.60790  0.12389  1.0000
  H   H12       1.0  0.18330  0.39210  0.87612  1.0000
  H   H13       1.0  0.57924  0.36252  0.06973  1.0000
  H   H14       1.0  0.42077  0.63749  0.93028  1.0000
  C   C1        1.0  0.04589  0.13465  0.25136  1.0000
  C   C2        1.0  0.95411  0.86535  0.74863  1.0000
  C   C3        1.0  0.97551  0.19382  0.35190  1.0000
  C   C4        1.0  0.02448  0.80617  0.64809  1.0000
  C   C5        1.0  0.09750  0.33038  0.38453  1.0000
  C   C6        1.0  0.90249  0.66962  0.61546  1.0000
  C   C7        1.0  0.29063  0.40654  0.31726  1.0000
  C   C8        1.0  0.70938  0.59346  0.68274  1.0000
  C   C9        1.0  0.34749  0.33965  0.21564  1.0000
  C   C10       1.0  0.65252  0.66035  0.78436  1.0000
  C   C11       1.0  0.42917  0.54618  0.34624  1.0000
  C   C12       1.0  0.57083  0.45382  0.65376  1.0000
  C   C13       1.0  0.61576  0.61686  0.27772  1.0000
  C   C14       1.0  0.38424  0.38314  0.72228  1.0000
  C   C15       1.0  0.66774  0.55058  0.17709  1.0000
  C   C16       1.0  0.33226  0.44942  0.82292  1.0000
  C   C17       1.0  0.53665  0.41487  0.14649  1.0000
  C   C18       1.0  0.46336  0.58514  0.85352  1.0000
  C   C19       1.0  0.77414  0.10741  0.41866  1.0000
  C   C20       1.0  0.22584  0.89258  0.58132  1.0000
  I   I1        1.0  0.29593  0.85173  0.08823  1.0000
  I   I2        1.0  0.70408  0.14827  0.91177  1.0000
  N   N1        1.0  0.22307  0.20347  0.18495  1.0000
  N   N2        1.0  0.77695  0.79653  0.81505  1.0000
  O   O1        1.0  0.68298  0.98270  0.39104  1.0000
  O   O2        1.0  0.31701  0.01731  0.60895  1.0000
  O   O3        1.0  0.70072  0.17219  0.50749  1.0000
  O   O4        1.0  0.29926  0.82781  0.49251  1.0000
