data_image0
_chemical_formula_structural       Ag2H12C22N2O8
_chemical_formula_sum              "Ag2 H12 C22 N2 O8"
_cell_length_a       6.59309
_cell_length_b       8.83172
_cell_length_c       9.20212
_cell_angle_alpha    78.5164
_cell_angle_beta     72.7975
_cell_angle_gamma    67.743

_space_group_name_H-M_alt    "P 1"
_space_group_IT_number       1

loop_
  _space_group_symop_operation_xyz
  'x, y, z'

loop_
  _atom_site_type_symbol
  _atom_site_label
  _atom_site_symmetry_multiplicity
  _atom_site_fract_x
  _atom_site_fract_y
  _atom_site_fract_z
  _atom_site_occupancy
  Ag  Ag1       1.0  0.40495  0.09120  0.21588  1.0000
  Ag  Ag2       1.0  0.59505  0.90881  0.78412  1.0000
  H   H1        1.0  0.11379  0.09340  0.80252  1.0000
  H   H2        1.0  0.88621  0.90661  0.19747  1.0000
  H   H3        1.0  0.01675  0.85101  0.95106  1.0000
  H   H4        1.0  0.98325  0.14900  0.04894  1.0000
  H   H5        1.0  0.06713  0.61619  0.81804  1.0000
  H   H6        1.0  0.93287  0.38382  0.18196  1.0000
  H   H7        1.0  0.27451  0.09812  0.52122  1.0000
  H   H8        1.0  0.72549  0.90188  0.47878  1.0000
  H   H9        1.0  0.16655  0.49369  0.57066  1.0000
  H   H10       1.0  0.83346  0.50631  0.42934  1.0000
  H   H11       1.0  0.28755  0.44916  0.06144  1.0000
  H   H12       1.0  0.71246  0.55082  0.93856  1.0000
  C   C1        1.0  0.25989  0.86052  0.50885  1.0000
  C   C2        1.0  0.74011  0.13948  0.49114  1.0000
  C   C3        1.0  0.14241  0.98886  0.74353  1.0000
  C   C4        1.0  0.85760  0.01114  0.25647  1.0000
  C   C5        1.0  0.08189  0.85303  0.82783  1.0000
  C   C6        1.0  0.91811  0.14697  0.17217  1.0000
  C   C7        1.0  0.10742  0.72315  0.75404  1.0000
  C   C8        1.0  0.89258  0.27685  0.24596  1.0000
  C   C9        1.0  0.37010  0.74308  0.27907  1.0000
  C   C10       1.0  0.62989  0.25692  0.72093  1.0000
  C   C11       1.0  0.22979  0.99305  0.58692  1.0000
  C   C12       1.0  0.77022  0.00696  0.41307  1.0000
  C   C13       1.0  0.48617  0.75067  0.11011  1.0000
  C   C14       1.0  0.51383  0.24933  0.88989  1.0000
  C   C15       1.0  0.21729  0.59823  0.51104  1.0000
  C   C16       1.0  0.78272  0.40177  0.48896  1.0000
  C   C17       1.0  0.29848  0.60796  0.35402  1.0000
  C   C18       1.0  0.70151  0.39204  0.64598  1.0000
  C   C19       1.0  0.19553  0.72439  0.59328  1.0000
  C   C20       1.0  0.80447  0.27561  0.40673  1.0000
  C   C21       1.0  0.29979  0.48086  0.26828  1.0000
  C   C22       1.0  0.70021  0.51913  0.73172  1.0000
  N   N1        1.0  0.34875  0.86481  0.35374  1.0000
  N   N2        1.0  0.65125  0.13519  0.64626  1.0000
  O   O1        1.0  0.31800  0.33909  0.32943  1.0000
  O   O2        1.0  0.68199  0.66091  0.67058  1.0000
  O   O3        1.0  0.38687  0.86924  0.02526  1.0000
  O   O4        1.0  0.61313  0.13076  0.97473  1.0000
  O   O5        1.0  0.67630  0.63859  0.07092  1.0000
  O   O6        1.0  0.32370  0.36140  0.92909  1.0000
  O   O7        1.0  0.26893  0.53778  0.13005  1.0000
  O   O8        1.0  0.73107  0.46221  0.86995  1.0000
