data_image0
_chemical_formula_structural       Cu4H28C40I4N4O8
_chemical_formula_sum              "Cu4 H28 C40 I4 N4 O8"
_cell_length_a       4.23424
_cell_length_b       14.8262
_cell_length_c       15.8259
_cell_angle_alpha    89.9999
_cell_angle_beta     90.0001
_cell_angle_gamma    89.0974

_space_group_name_H-M_alt    "P 1"
_space_group_IT_number       1

loop_
  _space_group_symop_operation_xyz
  'x, y, z'

loop_
  _atom_site_type_symbol
  _atom_site_label
  _atom_site_symmetry_multiplicity
  _atom_site_fract_x
  _atom_site_fract_y
  _atom_site_fract_z
  _atom_site_occupancy
  Cu  Cu1       1.0  0.67305  0.98468  0.93425  1.0000
  Cu  Cu2       1.0  0.82695  0.51532  0.43425  1.0000
  Cu  Cu3       1.0  0.32695  0.01532  0.06575  1.0000
  Cu  Cu4       1.0  0.17305  0.48468  0.56575  1.0000
  H   H1        1.0  0.10052  0.04155  0.55352  1.0000
  H   H2        1.0  0.39950  0.45845  0.05352  1.0000
  H   H3        1.0  0.89949  0.95845  0.44647  1.0000
  H   H4        1.0  0.60050  0.54155  0.94648  1.0000
  H   H5        1.0  0.90752  0.00348  0.76229  1.0000
  H   H6        1.0  0.59248  0.49652  0.26230  1.0000
  H   H7        1.0  0.09248  0.99652  0.23770  1.0000
  H   H8        1.0  0.40752  0.50348  0.73771  1.0000
  H   H9        1.0  0.46409  0.80100  0.60841  1.0000
  H   H10       1.0  0.03592  0.69900  0.10841  1.0000
  H   H11       1.0  0.53594  0.19899  0.39159  1.0000
  H   H12       1.0  0.96407  0.30100  0.89159  1.0000
  H   H13       1.0  0.13668  0.68568  0.68202  1.0000
  H   H14       1.0  0.36332  0.81432  0.18202  1.0000
  H   H15       1.0  0.86334  0.31431  0.31798  1.0000
  H   H16       1.0  0.63668  0.18569  0.81798  1.0000
  H   H17       1.0  0.91682  0.62446  0.81477  1.0000
  H   H18       1.0  0.58316  0.87554  0.31478  1.0000
  H   H19       1.0  0.08318  0.37554  0.18523  1.0000
  H   H20       1.0  0.41682  0.12446  0.68522  1.0000
  H   H21       1.0  0.03711  0.69765  0.95247  1.0000
  H   H22       1.0  0.46288  0.80235  0.45247  1.0000
  H   H23       1.0  0.96290  0.30236  0.04753  1.0000
  H   H24       1.0  0.53711  0.19765  0.54753  1.0000
  H   H25       1.0  0.37672  0.83295  0.95777  1.0000
  H   H26       1.0  0.12327  0.66705  0.45777  1.0000
  H   H27       1.0  0.62328  0.16705  0.04223  1.0000
  H   H28       1.0  0.87672  0.33296  0.54223  1.0000
  C   C1        1.0  0.75895  0.94436  0.75622  1.0000
  C   C2        1.0  0.74105  0.55564  0.25623  1.0000
  C   C3        1.0  0.24105  0.05564  0.24377  1.0000
  C   C4        1.0  0.25895  0.44436  0.74378  1.0000
  C   C5        1.0  0.69973  0.90687  0.67555  1.0000
  C   C6        1.0  0.80026  0.59313  0.17555  1.0000
  C   C7        1.0  0.30027  0.09313  0.32445  1.0000
  C   C8        1.0  0.19972  0.40687  0.82445  1.0000
  C   C9        1.0  0.51182  0.83147  0.66974  1.0000
  C   C10       1.0  0.98818  0.66853  0.16974  1.0000
  C   C11       1.0  0.48820  0.16853  0.33026  1.0000
  C   C12       1.0  0.01181  0.33147  0.83026  1.0000
  C   C13       1.0  0.38617  0.79378  0.74393  1.0000
  C   C14       1.0  0.11384  0.70622  0.24394  1.0000
  C   C15       1.0  0.61385  0.20622  0.25606  1.0000
  C   C16       1.0  0.88615  0.29378  0.75607  1.0000
  C   C17       1.0  0.45450  0.83598  0.82322  1.0000
  C   C18       1.0  0.04550  0.66402  0.32322  1.0000
  C   C19       1.0  0.54550  0.16403  0.17678  1.0000
  C   C20       1.0  0.95449  0.33598  0.67678  1.0000
  C   C21       1.0  0.19189  0.71671  0.74262  1.0000
  C   C22       1.0  0.30811  0.78329  0.24262  1.0000
  C   C23       1.0  0.80813  0.28328  0.25738  1.0000
  C   C24       1.0  0.69188  0.21671  0.75738  1.0000
  C   C25       1.0  0.07036  0.68275  0.81656  1.0000
  C   C26       1.0  0.42964  0.81725  0.31656  1.0000
  C   C27       1.0  0.92965  0.31725  0.18344  1.0000
  C   C28       1.0  0.57035  0.18275  0.68344  1.0000
  C   C29       1.0  0.13846  0.72458  0.89459  1.0000
  C   C30       1.0  0.36154  0.77542  0.39459  1.0000
  C   C31       1.0  0.86155  0.27542  0.10541  1.0000
  C   C32       1.0  0.63845  0.22459  0.60541  1.0000
  C   C33       1.0  0.32652  0.79976  0.89793  1.0000
  C   C34       1.0  0.17349  0.70025  0.39794  1.0000
  C   C35       1.0  0.67350  0.20025  0.10207  1.0000
  C   C36       1.0  0.82651  0.29976  0.60207  1.0000
  C   C37       1.0  0.83354  0.94686  0.59814  1.0000
  C   C38       1.0  0.66648  0.55313  0.09814  1.0000
  C   C39       1.0  0.16648  0.05313  0.40185  1.0000
  C   C40       1.0  0.33353  0.44686  0.90186  1.0000
  I   I1        1.0  0.82797  0.90622  0.07855  1.0000
  I   I2        1.0  0.67201  0.59378  0.57854  1.0000
  I   I3        1.0  0.17201  0.09378  0.92145  1.0000
  I   I4        1.0  0.32797  0.40622  0.42145  1.0000
  N   N1        1.0  0.64028  0.91162  0.82740  1.0000
  N   N2        1.0  0.85972  0.58838  0.32740  1.0000
  N   N3        1.0  0.35973  0.08838  0.17259  1.0000
  N   N4        1.0  0.14027  0.41162  0.67260  1.0000
  O   O1        1.0  0.02166  0.01573  0.61068  1.0000
  O   O2        1.0  0.47833  0.48427  0.11068  1.0000
  O   O3        1.0  0.97833  0.98427  0.38931  1.0000
  O   O4        1.0  0.52165  0.51573  0.88932  1.0000
  O   O5        1.0  0.76874  0.91646  0.52653  1.0000
  O   O6        1.0  0.73127  0.58354  0.02654  1.0000
  O   O7        1.0  0.23128  0.08353  0.47346  1.0000
  O   O8        1.0  0.26874  0.41646  0.97347  1.0000
