data_image0
_chemical_formula_structural       ZnH20C32N4O8F8
_chemical_formula_sum              "Zn1 H20 C32 N4 O8 F8"
_cell_length_a       6.24864
_cell_length_b       9.54504
_cell_length_c       13.6486
_cell_angle_alpha    104.461
_cell_angle_beta     94.3943
_cell_angle_gamma    94.8485

_space_group_name_H-M_alt    "P 1"
_space_group_IT_number       1

loop_
  _space_group_symop_operation_xyz
  'x, y, z'

loop_
  _atom_site_type_symbol
  _atom_site_label
  _atom_site_symmetry_multiplicity
  _atom_site_fract_x
  _atom_site_fract_y
  _atom_site_fract_z
  _atom_site_occupancy
  Zn  Zn1       1.0  1.00000  0.50000  0.50000  1.0000
  H   H1        1.0  0.98729  0.90431  0.40724  1.0000
  H   H2        1.0  0.01271  0.09569  0.59276  1.0000
  H   H3        1.0  0.83471  0.99422  0.32970  1.0000
  H   H4        1.0  0.16529  0.00579  0.67030  1.0000
  H   H5        1.0  0.10190  0.85723  0.23142  1.0000
  H   H6        1.0  0.89809  0.14277  0.76857  1.0000
  H   H7        1.0  0.83755  0.78071  0.17872  1.0000
  H   H8        1.0  0.16245  0.21929  0.82128  1.0000
  H   H9        1.0  0.99376  0.69181  0.25593  1.0000
  H   H10       1.0  0.00624  0.30819  0.74406  1.0000
  H   H11       1.0  0.57542  0.08811  0.97447  1.0000
  H   H12       1.0  0.42458  0.91189  0.02553  1.0000
  H   H13       1.0  0.84813  0.12738  0.95167  1.0000
  H   H14       1.0  0.15186  0.87262  0.04833  1.0000
  H   H15       1.0  0.58459  0.23328  0.84472  1.0000
  H   H16       1.0  0.41541  0.76672  0.15528  1.0000
  H   H17       1.0  0.76196  0.37377  0.93079  1.0000
  H   H18       1.0  0.23804  0.62623  0.06921  1.0000
  H   H19       1.0  0.49167  0.33554  0.95794  1.0000
  H   H20       1.0  0.50833  0.66446  0.04206  1.0000
  C   C1        1.0  0.25415  0.73662  0.67649  1.0000
  C   C2        1.0  0.74585  0.26338  0.32351  1.0000
  C   C3        1.0  0.44879  0.83752  0.69931  1.0000
  C   C4        1.0  0.55121  0.16248  0.30069  1.0000
  C   C5        1.0  0.54662  0.82201  0.61208  1.0000
  C   C6        1.0  0.45337  0.17799  0.38792  1.0000
  C   C7        1.0  0.41879  0.70808  0.53456  1.0000
  C   C8        1.0  0.58121  0.29192  0.46544  1.0000
  C   C9        1.0  0.47015  0.65517  0.43458  1.0000
  C   C10       1.0  0.52985  0.34483  0.56542  1.0000
  C   C11       1.0  0.34988  0.54382  0.35856  1.0000
  C   C12       1.0  0.65012  0.45618  0.64144  1.0000
  C   C13       1.0  0.40372  0.49126  0.25542  1.0000
  C   C14       1.0  0.59628  0.50874  0.74458  1.0000
  C   C15       1.0  0.24223  0.38754  0.20478  1.0000
  C   C16       1.0  0.75777  0.61246  0.79522  1.0000
  C   C17       1.0  0.08792  0.37271  0.27656  1.0000
  C   C18       1.0  0.91208  0.62729  0.72344  1.0000
  C   C19       1.0  0.89684  0.27776  0.25484  1.0000
  C   C20       1.0  0.10316  0.72224  0.74516  1.0000
  C   C21       1.0  0.68263  0.71869  0.41050  1.0000
  C   C22       1.0  0.31738  0.28131  0.58950  1.0000
  C   C23       1.0  0.87252  0.88854  0.33955  1.0000
  C   C24       1.0  0.12748  0.11146  0.66045  1.0000
  C   C25       1.0  0.95475  0.79740  0.24565  1.0000
  C   C26       1.0  0.04525  0.20260  0.75434  1.0000
  C   C27       1.0  0.84973  0.18086  0.14780  1.0000
  C   C28       1.0  0.15027  0.81913  0.85220  1.0000
  C   C29       1.0  0.70407  0.17610  0.97950  1.0000
  C   C30       1.0  0.29594  0.82390  0.02050  1.0000
  C   C31       1.0  0.63161  0.28662  0.92542  1.0000
  C   C32       1.0  0.36840  0.71338  0.07458  1.0000
  N   N1        1.0  0.24291  0.65970  0.57624  1.0000
  N   N2        1.0  0.75709  0.34030  0.42376  1.0000
  N   N3        1.0  0.16041  0.46748  0.36899  1.0000
  N   N4        1.0  0.83959  0.53252  0.63101  1.0000
  O   O1        1.0  0.85606  0.68005  0.43633  1.0000
  O   O2        1.0  0.14394  0.31995  0.56367  1.0000
  O   O3        1.0  0.66526  0.82240  0.36150  1.0000
  O   O4        1.0  0.33474  0.17761  0.63850  1.0000
  O   O5        1.0  0.89261  0.05520  0.12284  1.0000
  O   O6        1.0  0.10740  0.94480  0.87716  1.0000
  O   O7        1.0  0.75525  0.25320  0.08704  1.0000
  O   O8        1.0  0.24475  0.74679  0.91296  1.0000
  F   F1        1.0  0.52001  0.93118  0.78936  1.0000
  F   F2        1.0  0.47999  0.06882  0.21064  1.0000
  F   F3        1.0  0.72869  0.89943  0.60056  1.0000
  F   F4        1.0  0.27131  0.10056  0.39944  1.0000
  F   F5        1.0  0.58186  0.53592  0.21771  1.0000
  F   F6        1.0  0.41814  0.46408  0.78229  1.0000
  F   F7        1.0  0.22928  0.31216  0.10674  1.0000
  F   F8        1.0  0.77072  0.68784  0.89326  1.0000
