data_image0
_chemical_formula_structural       ZnH28C32N4O8
_chemical_formula_sum              "Zn1 H28 C32 N4 O8"
_cell_length_a       6.42675
_cell_length_b       8.39461
_cell_length_c       13.3065
_cell_angle_alpha    83.9551
_cell_angle_beta     87.816
_cell_angle_gamma    84.194

_space_group_name_H-M_alt    "P 1"
_space_group_IT_number       1

loop_
  _space_group_symop_operation_xyz
  'x, y, z'

loop_
  _atom_site_type_symbol
  _atom_site_label
  _atom_site_symmetry_multiplicity
  _atom_site_fract_x
  _atom_site_fract_y
  _atom_site_fract_z
  _atom_site_occupancy
  Zn  Zn1       1.0  1.00000  0.50000  0.50000  1.0000
  H   H1        1.0  0.45166  0.80703  0.23882  1.0000
  H   H2        1.0  0.54834  0.19297  0.76118  1.0000
  H   H3        1.0  0.77603  0.70024  0.12429  1.0000
  H   H4        1.0  0.22397  0.29977  0.87571  1.0000
  H   H5        1.0  0.51055  0.35744  0.19432  1.0000
  H   H6        1.0  0.48945  0.64256  0.80568  1.0000
  H   H7        1.0  0.71633  0.22620  0.35936  1.0000
  H   H8        1.0  0.28367  0.77380  0.64064  1.0000
  H   H9        1.0  0.02007  0.04256  0.61682  1.0000
  H   H10       1.0  0.97992  0.95745  0.38318  1.0000
  H   H11       1.0  0.90271  0.85898  0.61570  1.0000
  H   H12       1.0  0.09729  0.14102  0.38430  1.0000
  H   H13       1.0  0.05732  0.86837  0.78325  1.0000
  H   H14       1.0  0.94266  0.13160  0.21675  1.0000
  H   H15       1.0  0.78201  0.87639  0.79848  1.0000
  H   H16       1.0  0.21796  0.12360  0.20151  1.0000
  H   H17       1.0  0.91180  0.05611  0.79908  1.0000
  H   H18       1.0  0.08819  0.94387  0.20092  1.0000
  H   H19       1.0  0.23350  0.61324  0.95303  1.0000
  H   H20       1.0  0.76651  0.38677  0.04697  1.0000
  H   H21       1.0  0.05403  0.78882  0.95718  1.0000
  H   H22       1.0  0.94597  0.21119  0.04282  1.0000
  H   H23       1.0  0.39457  0.87839  0.89128  1.0000
  H   H24       1.0  0.60543  0.12162  0.10872  1.0000
  H   H25       1.0  0.52879  0.76357  0.99288  1.0000
  H   H26       1.0  0.47121  0.23644  0.00712  1.0000
  H   H27       1.0  0.35136  0.93540  0.01570  1.0000
  H   H28       1.0  0.64864  0.06461  0.98430  1.0000
  C   C1        1.0  0.64909  0.69093  0.36916  1.0000
  C   C2        1.0  0.35091  0.30907  0.63085  1.0000
  C   C3        1.0  0.59586  0.73998  0.26455  1.0000
  C   C4        1.0  0.40414  0.26002  0.73545  1.0000
  C   C5        1.0  0.76140  0.68552  0.20612  1.0000
  C   C6        1.0  0.23860  0.31449  0.79388  1.0000
  C   C7        1.0  0.91605  0.60121  0.27433  1.0000
  C   C8        1.0  0.08395  0.39879  0.72567  1.0000
  C   C9        1.0  0.10921  0.52304  0.24436  1.0000
  C   C10       1.0  0.89080  0.47696  0.75564  1.0000
  C   C11       1.0  0.25966  0.43394  0.30727  1.0000
  C   C12       1.0  0.74034  0.56606  0.69273  1.0000
  C   C13       1.0  0.45826  0.35830  0.27257  1.0000
  C   C14       1.0  0.54174  0.64170  0.72743  1.0000
  C   C15       1.0  0.56231  0.29140  0.35632  1.0000
  C   C16       1.0  0.43768  0.70860  0.64368  1.0000
  C   C17       1.0  0.42888  0.32665  0.44332  1.0000
  C   C18       1.0  0.57112  0.67336  0.55668  1.0000
  C   C19       1.0  0.47871  0.27832  0.54505  1.0000
  C   C20       1.0  0.52129  0.72169  0.45495  1.0000
  C   C21       1.0  0.69260  0.19299  0.56073  1.0000
  C   C22       1.0  0.30740  0.80701  0.43927  1.0000
  C   C23       1.0  0.89682  0.97151  0.65113  1.0000
  C   C24       1.0  0.10318  0.02849  0.34887  1.0000
  C   C25       1.0  0.91038  0.94275  0.76490  1.0000
  C   C26       1.0  0.08961  0.05724  0.23510  1.0000
  C   C27       1.0  0.16333  0.53581  0.13334  1.0000
  C   C28       1.0  0.83668  0.46419  0.86666  1.0000
  C   C29       1.0  0.20128  0.72726  0.98665  1.0000
  C   C30       1.0  0.79872  0.27275  0.01335  1.0000
  C   C31       1.0  0.37989  0.83205  0.97136  1.0000
  C   C32       1.0  0.62011  0.16796  0.02864  1.0000
  N   N1        1.0  0.84252  0.60466  0.37229  1.0000
  N   N2        1.0  0.15748  0.39534  0.62771  1.0000
  N   N3        1.0  0.24535  0.41155  0.41100  1.0000
  N   N4        1.0  0.75465  0.58845  0.58900  1.0000
  O   O1        1.0  0.85209  0.23939  0.51759  1.0000
  O   O2        1.0  0.14790  0.76061  0.48241  1.0000
  O   O3        1.0  0.69349  0.05877  0.62539  1.0000
  O   O4        1.0  0.30650  0.94123  0.37461  1.0000
  O   O5        1.0  0.20548  0.42081  0.08403  1.0000
  O   O6        1.0  0.79452  0.57920  0.91598  1.0000
  O   O7        1.0  0.16240  0.69157  0.09515  1.0000
  O   O8        1.0  0.83760  0.30844  0.90485  1.0000
