data_image0
_chemical_formula_structural       CoH22C24N4O10
_chemical_formula_sum              "Co1 H22 C24 N4 O10"
_cell_length_a       7.9018
_cell_length_b       7.70397
_cell_length_c       11.0349
_cell_angle_alpha    81.1839
_cell_angle_beta     75.1658
_cell_angle_gamma    62.2895

_space_group_name_H-M_alt    "P 1"
_space_group_IT_number       1

loop_
  _space_group_symop_operation_xyz
  'x, y, z'

loop_
  _atom_site_type_symbol
  _atom_site_label
  _atom_site_symmetry_multiplicity
  _atom_site_fract_x
  _atom_site_fract_y
  _atom_site_fract_z
  _atom_site_occupancy
  Co  Co1       1.0  0.50000  0.50000  0.00000  1.0000
  H   H1        1.0  0.42002  0.04972  0.23280  1.0000
  H   H2        1.0  0.57998  0.95028  0.76720  1.0000
  H   H3        1.0  0.19778  0.49366  0.50061  1.0000
  H   H4        1.0  0.80222  0.50634  0.49939  1.0000
  H   H5        1.0  0.11255  0.27631  0.66946  1.0000
  H   H6        1.0  0.88745  0.72369  0.33054  1.0000
  H   H7        1.0  0.32320  0.83465  0.39612  1.0000
  H   H8        1.0  0.67681  0.16535  0.60388  1.0000
  H   H9        1.0  0.94832  0.12613  0.78004  1.0000
  H   H10       1.0  0.05168  0.87388  0.21995  1.0000
  H   H11       1.0  0.34139  0.63744  0.55359  1.0000
  H   H12       1.0  0.65862  0.36256  0.44641  1.0000
  H   H13       1.0  0.15424  0.50984  0.77582  1.0000
  H   H14       1.0  0.84576  0.49016  0.22418  1.0000
  H   H15       1.0  0.80022  0.95954  0.96283  1.0000
  H   H16       1.0  0.19978  0.04046  0.03717  1.0000
  H   H17       1.0  0.83511  0.71703  0.94015  1.0000
  H   H18       1.0  0.16489  0.28296  0.05985  1.0000
  H   H19       1.0  0.54208  0.19667  0.94118  1.0000
  H   H20       1.0  0.45792  0.80333  0.05882  1.0000
  H   H21       1.0  0.54919  0.34233  0.81868  1.0000
  H   H22       1.0  0.45081  0.65768  0.18132  1.0000
  C   C1        1.0  0.36460  0.42172  0.25869  1.0000
  C   C2        1.0  0.63539  0.57828  0.74131  1.0000
  C   C3        1.0  0.35023  0.09949  0.32802  1.0000
  C   C4        1.0  0.64976  0.90051  0.67198  1.0000
  C   C5        1.0  0.22799  0.34765  0.47954  1.0000
  C   C6        1.0  0.77201  0.65235  0.52046  1.0000
  C   C7        1.0  0.17738  0.22754  0.57343  1.0000
  C   C8        1.0  0.82262  0.77245  0.42657  1.0000
  C   C9        1.0  0.29856  0.97766  0.42031  1.0000
  C   C10       1.0  0.70144  0.02234  0.57969  1.0000
  C   C11       1.0  0.31389  0.28673  0.35619  1.0000
  C   C12       1.0  0.68610  0.71327  0.64381  1.0000
  C   C13       1.0  0.21201  0.04289  0.54278  1.0000
  C   C14       1.0  0.78799  0.95710  0.45722  1.0000
  C   C15       1.0  0.02851  0.97695  0.74787  1.0000
  C   C16       1.0  0.97150  0.02305  0.25213  1.0000
  C   C17       1.0  0.23068  0.71699  0.63191  1.0000
  C   C18       1.0  0.76932  0.28301  0.36809  1.0000
  C   C19       1.0  0.14173  0.65389  0.73972  1.0000
  C   C20       1.0  0.85827  0.34611  0.26028  1.0000
  C   C21       1.0  0.90787  0.80937  0.93687  1.0000
  C   C22       1.0  0.09213  0.19063  0.06313  1.0000
  C   C23       1.0  0.04046  0.73271  0.03404  1.0000
  C   C24       1.0  0.95954  0.26729  0.96595  1.0000
  N   N1        1.0  0.15878  0.91864  0.63785  1.0000
  N   N2        1.0  0.84123  0.08136  0.36215  1.0000
  N   N3        1.0  0.01642  0.81789  0.80956  1.0000
  N   N4        1.0  0.98357  0.18212  0.19044  1.0000
  O   O1        1.0  0.42332  0.36536  0.14552  1.0000
  O   O2        1.0  0.57668  0.63465  0.85448  1.0000
  O   O3        1.0  0.34937  0.58052  0.29283  1.0000
  O   O4        1.0  0.65063  0.41948  0.70717  1.0000
  O   O5        1.0  0.97142  0.67339  0.13831  1.0000
  O   O6        1.0  0.02858  0.32660  0.86169  1.0000
  O   O7        1.0  0.46502  0.32516  0.90536  1.0000
  O   O8        1.0  0.53498  0.67484  0.09465  1.0000
  O   O9        1.0  0.20014  0.74669  0.00098  1.0000
  O   O10       1.0  0.79986  0.25332  0.99902  1.0000
