data_image0
_chemical_formula_structural       CuH18C24N4O8
_chemical_formula_sum              "Cu1 H18 C24 N4 O8"
_cell_length_a       6.96557
_cell_length_b       7.98551
_cell_length_c       10.605
_cell_angle_alpha    99.5359
_cell_angle_beta     105.09
_cell_angle_gamma    109.803

_space_group_name_H-M_alt    "P 1"
_space_group_IT_number       1

loop_
  _space_group_symop_operation_xyz
  'x, y, z'

loop_
  _atom_site_type_symbol
  _atom_site_label
  _atom_site_symmetry_multiplicity
  _atom_site_fract_x
  _atom_site_fract_y
  _atom_site_fract_z
  _atom_site_occupancy
  Cu  Cu1       1.0  0.00000  0.00000  1.00000  1.0000
  H   H1        1.0  0.29380  0.37032  0.48575  1.0000
  H   H2        1.0  0.70618  0.62967  0.51424  1.0000
  H   H3        1.0  0.01243  0.56709  0.16415  1.0000
  H   H4        1.0  0.98757  0.43292  0.83584  1.0000
  H   H5        1.0  0.38683  0.66212  0.65511  1.0000
  H   H6        1.0  0.61316  0.33787  0.34489  1.0000
  H   H7        1.0  0.11458  0.86684  0.32829  1.0000
  H   H8        1.0  0.88544  0.13317  0.67171  1.0000
  H   H9        1.0  0.52400  0.92205  0.78099  1.0000
  H   H10       1.0  0.47600  0.07795  0.21901  1.0000
  H   H11       1.0  0.17597  0.10047  0.47571  1.0000
  H   H12       1.0  0.82403  0.89953  0.52430  1.0000
  H   H13       1.0  0.36511  0.37821  0.72602  1.0000
  H   H14       1.0  0.63490  0.62179  0.27399  1.0000
  H   H15       1.0  0.73409  0.24461  0.97227  1.0000
  H   H16       1.0  0.26591  0.75539  0.02774  1.0000
  H   H17       1.0  0.65278  0.42709  0.94050  1.0000
  H   H18       1.0  0.34722  0.57291  0.05950  1.0000
  C   C1        1.0  0.10462  0.26734  0.21994  1.0000
  C   C2        1.0  0.89539  0.73266  0.78006  1.0000
  C   C3        1.0  0.14607  0.44744  0.31477  1.0000
  C   C4        1.0  0.85392  0.55256  0.68523  1.0000
  C   C5        1.0  0.24979  0.47797  0.45341  1.0000
  C   C6        1.0  0.75019  0.52202  0.54658  1.0000
  C   C7        1.0  0.09437  0.58824  0.27165  1.0000
  C   C8        1.0  0.90563  0.41176  0.72835  1.0000
  C   C9        1.0  0.30547  0.64356  0.54797  1.0000
  C   C10       1.0  0.69451  0.35643  0.45204  1.0000
  C   C11       1.0  0.15061  0.75727  0.36479  1.0000
  C   C12       1.0  0.84938  0.24273  0.63521  1.0000
  C   C13       1.0  0.25805  0.78423  0.50275  1.0000
  C   C14       1.0  0.74194  0.21576  0.49726  1.0000
  C   C15       1.0  0.45052  0.00520  0.73226  1.0000
  C   C16       1.0  0.54948  0.99479  0.26775  1.0000
  C   C17       1.0  0.26928  0.10418  0.57639  1.0000
  C   C18       1.0  0.73072  0.89582  0.42361  1.0000
  C   C19       1.0  0.36419  0.24101  0.69660  1.0000
  C   C20       1.0  0.63582  0.75899  0.30340  1.0000
  C   C21       1.0  0.59366  0.27887  0.93365  1.0000
  C   C22       1.0  0.40634  0.72113  0.06635  1.0000
  C   C23       1.0  0.45414  0.23578  0.02485  1.0000
  C   C24       1.0  0.54586  0.76422  0.97515  1.0000
  N   N1        1.0  0.32346  0.95724  0.60034  1.0000
  N   N2        1.0  0.67654  0.04276  0.39966  1.0000
  N   N3        1.0  0.47625  0.17662  0.79095  1.0000
  N   N4        1.0  0.52376  0.82338  0.20905  1.0000
  O   O1        1.0  0.04125  0.25318  0.09107  1.0000
  O   O2        1.0  0.95874  0.74682  0.90893  1.0000
  O   O3        1.0  0.13668  0.14124  0.26791  1.0000
  O   O4        1.0  0.86336  0.85877  0.73209  1.0000
  O   O5        1.0  0.28382  0.08397  0.97290  1.0000
  O   O6        1.0  0.71618  0.91603  0.02711  1.0000
  O   O7        1.0  0.52542  0.34699  0.14031  1.0000
  O   O8        1.0  0.47457  0.65301  0.85969  1.0000
