data_image0
_chemical_formula_structural       Cd2H18C24Br2N4O8
_chemical_formula_sum              "Cd2 H18 C24 Br2 N4 O8"
_cell_length_a       7.89746
_cell_length_b       8.04828
_cell_length_c       10.7094
_cell_angle_alpha    71.1075
_cell_angle_beta     80.3802
_cell_angle_gamma    85.1343

_space_group_name_H-M_alt    "P 1"
_space_group_IT_number       1

loop_
  _space_group_symop_operation_xyz
  'x, y, z'

loop_
  _atom_site_type_symbol
  _atom_site_label
  _atom_site_symmetry_multiplicity
  _atom_site_fract_x
  _atom_site_fract_y
  _atom_site_fract_z
  _atom_site_occupancy
  Cd  Cd1       1.0  0.73398  0.95415  0.90496  1.0000
  Cd  Cd2       1.0  0.26601  0.04586  0.09503  1.0000
  H   H1        1.0  0.60138  0.49192  0.75371  1.0000
  H   H2        1.0  0.39863  0.50808  0.24629  1.0000
  H   H3        1.0  0.79709  0.59194  0.15682  1.0000
  H   H4        1.0  0.20290  0.40807  0.84318  1.0000
  H   H5        1.0  0.60587  0.32224  0.59856  1.0000
  H   H6        1.0  0.39414  0.67775  0.40144  1.0000
  H   H7        1.0  0.93438  0.86915  0.45654  1.0000
  H   H8        1.0  0.06562  0.13085  0.54346  1.0000
  H   H9        1.0  0.73669  0.46699  0.97909  1.0000
  H   H10       1.0  0.26330  0.53301  0.02091  1.0000
  H   H11       1.0  0.62953  0.26397  0.04074  1.0000
  H   H12       1.0  0.37047  0.73602  0.95926  1.0000
  H   H13       1.0  0.94562  0.69721  0.30115  1.0000
  H   H14       1.0  0.05438  0.30279  0.69885  1.0000
  H   H15       1.0  0.70555  0.04721  0.27689  1.0000
  H   H16       1.0  0.29445  0.95279  0.72311  1.0000
  H   H17       1.0  0.74502  0.13576  0.50145  1.0000
  H   H18       1.0  0.25499  0.86423  0.49854  1.0000
  C   C1        1.0  0.67560  0.53705  0.65444  1.0000
  C   C2        1.0  0.32441  0.46294  0.34556  1.0000
  C   C3        1.0  0.75244  0.79467  0.71194  1.0000
  C   C4        1.0  0.24757  0.20532  0.28806  1.0000
  C   C5        1.0  0.90883  0.24180  0.98857  1.0000
  C   C6        1.0  0.09117  0.75820  0.01144  1.0000
  C   C7        1.0  0.77701  0.45759  0.22055  1.0000
  C   C8        1.0  0.22298  0.54241  0.77945  1.0000
  C   C9        1.0  0.67967  0.44068  0.56762  1.0000
  C   C10       1.0  0.32034  0.55932  0.43239  1.0000
  C   C11       1.0  0.86113  0.74995  0.48734  1.0000
  C   C12       1.0  0.13887  0.25005  0.51266  1.0000
  C   C13       1.0  0.74501  0.32901  0.04273  1.0000
  C   C14       1.0  0.25498  0.67099  0.95727  1.0000
  C   C15       1.0  0.76441  0.69349  0.61518  1.0000
  C   C16       1.0  0.23560  0.30650  0.38482  1.0000
  C   C17       1.0  0.86761  0.65307  0.39938  1.0000
  C   C18       1.0  0.13239  0.34693  0.60062  1.0000
  C   C19       1.0  0.77541  0.49913  0.44047  1.0000
  C   C20       1.0  0.22460  0.50087  0.55953  1.0000
  C   C21       1.0  0.72805  0.17202  0.28856  1.0000
  C   C22       1.0  0.27196  0.82798  0.71144  1.0000
  C   C23       1.0  0.74334  0.21671  0.39833  1.0000
  C   C24       1.0  0.25666  0.78329  0.60167  1.0000
  Br  Br1       1.0  0.56696  0.86087  0.16187  1.0000
  Br  Br2       1.0  0.43304  0.13914  0.83812  1.0000
  N   N1        1.0  0.74775  0.32338  0.17980  1.0000
  N   N2        1.0  0.25224  0.67662  0.82020  1.0000
  N   N3        1.0  0.77279  0.39619  0.35433  1.0000
  N   N4        1.0  0.22721  0.60381  0.64567  1.0000
  O   O1        1.0  0.89991  0.17368  0.89813  1.0000
  O   O2        1.0  0.10009  0.82633  0.10187  1.0000
  O   O3        1.0  0.66764  0.72788  0.82843  1.0000
  O   O4        1.0  0.33237  0.27212  0.17157  1.0000
  O   O5        1.0  0.82453  0.94229  0.67702  1.0000
  O   O6        1.0  0.17548  0.05771  0.32298  1.0000
  O   O7        1.0  0.04371  0.25333  0.03378  1.0000
  O   O8        1.0  0.95628  0.74667  0.96622  1.0000
