data_image0
_chemical_formula_structural       ZnH22C24N4O10
_chemical_formula_sum              "Zn1 H22 C24 N4 O10"
_cell_length_a       7.31338
_cell_length_b       7.83565
_cell_length_c       11.1513
_cell_angle_alpha    85.7742
_cell_angle_beta     73.6252
_cell_angle_gamma    62.7359

_space_group_name_H-M_alt    "P 1"
_space_group_IT_number       1

loop_
  _space_group_symop_operation_xyz
  'x, y, z'

loop_
  _atom_site_type_symbol
  _atom_site_label
  _atom_site_symmetry_multiplicity
  _atom_site_fract_x
  _atom_site_fract_y
  _atom_site_fract_z
  _atom_site_occupancy
  Zn  Zn1       1.0  0.00000  0.00000  0.50000  1.0000
  H   H1        1.0  0.14811  0.19064  0.61169  1.0000
  H   H2        1.0  0.85189  0.80937  0.38831  1.0000
  H   H3        1.0  0.94745  0.15860  0.69720  1.0000
  H   H4        1.0  0.05254  0.84140  0.30280  1.0000
  H   H5        1.0  0.07457  0.45647  0.26486  1.0000
  H   H6        1.0  0.92543  0.54353  0.73514  1.0000
  H   H7        1.0  0.38479  0.21869  0.81573  1.0000
  H   H8        1.0  0.61520  0.78131  0.18427  1.0000
  H   H9        1.0  0.75066  0.49799  0.52888  1.0000
  H   H10       1.0  0.24934  0.50201  0.47112  1.0000
  H   H11       1.0  0.75084  0.71025  0.57784  1.0000
  H   H12       1.0  0.24916  0.28975  0.42216  1.0000
  H   H13       1.0  0.17414  0.65910  0.10577  1.0000
  H   H14       1.0  0.82585  0.34090  0.89423  1.0000
  H   H15       1.0  0.16346  0.84278  0.96023  1.0000
  H   H16       1.0  0.83654  0.15722  0.03977  1.0000
  H   H17       1.0  0.37084  0.95265  0.73868  1.0000
  H   H18       1.0  0.62916  0.04735  0.26132  1.0000
  H   H19       1.0  0.57816  0.35325  0.70422  1.0000
  H   H20       1.0  0.42184  0.64676  0.29578  1.0000
  H   H21       1.0  0.30309  0.01121  0.98004  1.0000
  H   H22       1.0  0.69691  0.98879  0.01995  1.0000
  C   C1        1.0  0.14659  0.40272  0.16696  1.0000
  C   C2        1.0  0.85341  0.59728  0.83304  1.0000
  C   C3        1.0  0.29021  0.44885  0.95141  1.0000
  C   C4        1.0  0.70979  0.55115  0.04858  1.0000
  C   C5        1.0  0.32334  0.26826  0.91445  1.0000
  C   C6        1.0  0.67666  0.73174  0.08555  1.0000
  C   C7        1.0  0.64881  0.64853  0.56547  1.0000
  C   C8        1.0  0.35119  0.35147  0.43453  1.0000
  C   C9        1.0  0.20016  0.51790  0.07714  1.0000
  C   C10       1.0  0.79984  0.48210  0.92286  1.0000
  C   C11       1.0  0.14152  0.08581  0.22786  1.0000
  C   C12       1.0  0.85848  0.91418  0.77214  1.0000
  C   C13       1.0  0.27880  0.76078  0.87512  1.0000
  C   C14       1.0  0.72121  0.23921  0.12488  1.0000
  C   C15       1.0  0.18613  0.21812  0.13247  1.0000
  C   C16       1.0  0.81386  0.78188  0.86753  1.0000
  C   C17       1.0  0.52186  0.76224  0.47264  1.0000
  C   C18       1.0  0.47814  0.23777  0.52736  1.0000
  C   C19       1.0  0.37909  0.81470  0.76805  1.0000
  C   C20       1.0  0.62091  0.18529  0.23196  1.0000
  C   C21       1.0  0.49100  0.50010  0.74444  1.0000
  C   C22       1.0  0.50900  0.49989  0.25556  1.0000
  C   C23       1.0  0.27216  0.15466  0.00570  1.0000
  C   C24       1.0  0.72784  0.84534  0.99430  1.0000
  N   N1        1.0  0.50963  0.65079  0.68874  1.0000
  N   N2        1.0  0.49037  0.34922  0.31126  1.0000
  N   N3        1.0  0.34996  0.56426  0.85936  1.0000
  N   N4        1.0  0.65005  0.43574  0.14064  1.0000
  O   O1        1.0  0.62469  0.81643  0.37957  1.0000
  O   O2        1.0  0.37530  0.18358  0.62043  1.0000
  O   O3        1.0  0.15528  0.93131  0.18693  1.0000
  O   O4        1.0  0.84472  0.06869  0.81307  1.0000
  O   O5        1.0  0.00553  0.20022  0.61281  1.0000
  O   O6        1.0  0.99446  0.79979  0.38719  1.0000
  O   O7        1.0  0.09405  0.13807  0.34280  1.0000
  O   O8        1.0  0.90595  0.86193  0.65720  1.0000
  O   O9        1.0  0.33342  0.78357  0.49327  1.0000
  O   O10       1.0  0.66658  0.21643  0.50673  1.0000
