data_image0
_chemical_formula_structural       Hg2H44C24S4
_chemical_formula_sum              "Hg2 H44 C24 S4"
_cell_length_a       6.55413
_cell_length_b       10.3975
_cell_length_c       10.597
_cell_angle_alpha    89.4266
_cell_angle_beta     83.0529
_cell_angle_gamma    81.1578

_space_group_name_H-M_alt    "P 1"
_space_group_IT_number       1

loop_
  _space_group_symop_operation_xyz
  'x, y, z'

loop_
  _atom_site_type_symbol
  _atom_site_label
  _atom_site_symmetry_multiplicity
  _atom_site_fract_x
  _atom_site_fract_y
  _atom_site_fract_z
  _atom_site_occupancy
  Hg  Hg1       1.0  0.22094  0.54849  0.56760  1.0000
  Hg  Hg2       1.0  0.77907  0.45151  0.43240  1.0000
  H   H1        1.0  0.62004  0.66381  0.68635  1.0000
  H   H2        1.0  0.37997  0.33619  0.31365  1.0000
  H   H3        1.0  0.25286  0.70777  0.77970  1.0000
  H   H4        1.0  0.74715  0.29224  0.22030  1.0000
  H   H5        1.0  0.30655  0.60566  0.90941  1.0000
  H   H6        1.0  0.69345  0.39435  0.09059  1.0000
  H   H7        1.0  0.48169  0.85911  0.84182  1.0000
  H   H8        1.0  0.51833  0.14089  0.15818  1.0000
  H   H9        1.0  0.29240  0.83787  0.97065  1.0000
  H   H10       1.0  0.70760  0.16213  0.02934  1.0000
  H   H11       1.0  0.54915  0.68057  0.07126  1.0000
  H   H12       1.0  0.45084  0.31943  0.92874  1.0000
  H   H13       1.0  0.64807  0.82717  0.04002  1.0000
  H   H14       1.0  0.35193  0.17282  0.95999  1.0000
  H   H15       1.0  0.86460  0.73346  0.84550  1.0000
  H   H16       1.0  0.13541  0.26654  0.15451  1.0000
  H   H17       1.0  0.91580  0.63117  0.97586  1.0000
  H   H18       1.0  0.08419  0.36882  0.02415  1.0000
  H   H19       1.0  0.69066  0.47959  0.90926  1.0000
  H   H20       1.0  0.30934  0.52040  0.09073  1.0000
  H   H21       1.0  0.87805  0.50587  0.78069  1.0000
  H   H22       1.0  0.12195  0.49413  0.21931  1.0000
  H   H23       1.0  0.11059  0.68866  0.30412  1.0000
  H   H24       1.0  0.88941  0.31134  0.69588  1.0000
  H   H25       1.0  0.10185  0.92619  0.47317  1.0000
  H   H26       1.0  0.89814  0.07381  0.52683  1.0000
  H   H27       1.0  0.31044  0.79773  0.43996  1.0000
  H   H28       1.0  0.68956  0.20227  0.56004  1.0000
  H   H29       1.0  0.36039  0.85636  0.21511  1.0000
  H   H30       1.0  0.63961  0.14364  0.78489  1.0000
  H   H31       1.0  0.36015  0.99622  0.30856  1.0000
  H   H32       1.0  0.63985  0.00378  0.69144  1.0000
  H   H33       1.0  0.99790  0.08023  0.27462  1.0000
  H   H34       1.0  0.00210  0.91977  0.72538  1.0000
  H   H35       1.0  0.14708  0.04375  0.12539  1.0000
  H   H36       1.0  0.85292  0.95625  0.87461  1.0000
  H   H37       1.0  0.80513  0.96189  0.13752  1.0000
  H   H38       1.0  0.19487  0.03811  0.86248  1.0000
  H   H39       1.0  0.01522  0.83295  0.11392  1.0000
  H   H40       1.0  0.98478  0.16705  0.88607  1.0000
  H   H41       1.0  0.74431  0.77301  0.27905  1.0000
  H   H42       1.0  0.25569  0.22699  0.72095  1.0000
  H   H43       1.0  0.75363  0.91401  0.36927  1.0000
  H   H44       1.0  0.24636  0.08599  0.63073  1.0000
  C   C1        1.0  0.56408  0.59916  0.76128  1.0000
  C   C2        1.0  0.43593  0.40084  0.23872  1.0000
  C   C3        1.0  0.37354  0.67318  0.84127  1.0000
  C   C4        1.0  0.62646  0.32683  0.15873  1.0000
  C   C5        1.0  0.43100  0.78766  0.91189  1.0000
  C   C6        1.0  0.56900  0.21234  0.08811  1.0000
  C   C7        1.0  0.60494  0.74289  0.99370  1.0000
  C   C8        1.0  0.39506  0.25711  0.00631  1.0000
  C   C9        1.0  0.79562  0.66757  0.91456  1.0000
  C   C10       1.0  0.20438  0.33242  0.08544  1.0000
  C   C11       1.0  0.73999  0.55362  0.84195  1.0000
  C   C12       1.0  0.26001  0.44638  0.15806  1.0000
  C   C13       1.0  0.02646  0.76734  0.36794  1.0000
  C   C14       1.0  0.97354  0.23266  0.63206  1.0000
  C   C15       1.0  0.17970  0.85592  0.39908  1.0000
  C   C16       1.0  0.82030  0.14408  0.60092  1.0000
  C   C17       1.0  0.26077  0.92761  0.28100  1.0000
  C   C18       1.0  0.73923  0.07239  0.71900  1.0000
  C   C19       1.0  0.08362  0.99946  0.21340  1.0000
  C   C20       1.0  0.91638  0.00054  0.78660  1.0000
  C   C21       1.0  0.93395  0.90803  0.18308  1.0000
  C   C22       1.0  0.06605  0.09197  0.81691  1.0000
  C   C23       1.0  0.84776  0.84080  0.30275  1.0000
  C   C24       1.0  0.15224  0.15920  0.69725  1.0000
  S   S1        1.0  0.50419  0.45537  0.68224  1.0000
  S   S2        1.0  0.49582  0.54464  0.31776  1.0000
  S   S3        1.0  0.91673  0.69104  0.51206  1.0000
  S   S4        1.0  0.08326  0.30896  0.48794  1.0000
