data_image0
_chemical_formula_structural       Ag4H26C30N6O12
_chemical_formula_sum              "Ag4 H26 C30 N6 O12"
_cell_length_a       7.21492
_cell_length_b       7.94556
_cell_length_c       14.1225
_cell_angle_alpha    76.0167
_cell_angle_beta     83.5464
_cell_angle_gamma    86.5203

_space_group_name_H-M_alt    "P 1"
_space_group_IT_number       1

loop_
  _space_group_symop_operation_xyz
  'x, y, z'

loop_
  _atom_site_type_symbol
  _atom_site_label
  _atom_site_symmetry_multiplicity
  _atom_site_fract_x
  _atom_site_fract_y
  _atom_site_fract_z
  _atom_site_occupancy
  Ag  Ag1       1.0  0.34018  0.27930  0.34324  1.0000
  Ag  Ag2       1.0  0.65982  0.72070  0.65676  1.0000
  Ag  Ag3       1.0  0.77135  0.45459  0.54578  1.0000
  Ag  Ag4       1.0  0.22864  0.54541  0.45422  1.0000
  H   H1        1.0  0.99213  0.13943  0.47270  1.0000
  H   H2        1.0  0.00787  0.86057  0.52731  1.0000
  H   H3        1.0  0.64306  0.14079  0.47171  1.0000
  H   H4        1.0  0.35694  0.85921  0.52829  1.0000
  H   H5        1.0  0.98795  0.66588  0.15820  1.0000
  H   H6        1.0  0.01205  0.33412  0.84180  1.0000
  H   H7        1.0  0.17229  0.59124  0.23113  1.0000
  H   H8        1.0  0.82771  0.40876  0.76887  1.0000
  H   H9        1.0  0.73473  0.61804  0.12611  1.0000
  H   H10       1.0  0.26527  0.38195  0.87389  1.0000
  H   H11       1.0  0.62601  0.42246  0.12886  1.0000
  H   H12       1.0  0.37399  0.57754  0.87114  1.0000
  H   H13       1.0  0.52022  0.56580  0.20037  1.0000
  H   H14       1.0  0.47978  0.43420  0.79963  1.0000
  H   H15       1.0  0.07338  0.43136  0.06513  1.0000
  H   H16       1.0  0.92661  0.56865  0.93487  1.0000
  H   H17       1.0  0.26905  0.56033  0.06161  1.0000
  H   H18       1.0  0.73095  0.43967  0.93839  1.0000
  H   H19       1.0  0.25295  0.35215  0.14219  1.0000
  H   H20       1.0  0.74705  0.64784  0.85781  1.0000
  H   H21       1.0  0.94236  0.89257  0.89437  1.0000
  H   H22       1.0  0.05764  0.10743  0.10563  1.0000
  H   H23       1.0  0.24150  0.84845  0.97324  1.0000
  H   H24       1.0  0.75850  0.15154  0.02676  1.0000
  H   H25       1.0  0.93791  0.06667  0.72244  1.0000
  H   H26       1.0  0.06208  0.93334  0.27756  1.0000
  C   C1        1.0  0.75216  0.41560  0.25938  1.0000
  C   C2        1.0  0.24784  0.58439  0.74062  1.0000
  C   C3        1.0  0.92265  0.22013  0.41227  1.0000
  C   C4        1.0  0.07735  0.77986  0.58774  1.0000
  C   C5        1.0  0.73000  0.22022  0.41156  1.0000
  C   C6        1.0  0.27000  0.77977  0.58844  1.0000
  C   C7        1.0  0.94627  0.42515  0.26423  1.0000
  C   C8        1.0  0.05373  0.57485  0.73577  1.0000
  C   C9        1.0  0.06946  0.54918  0.19038  1.0000
  C   C10       1.0  0.93054  0.45082  0.80962  1.0000
  C   C11       1.0  0.65420  0.51207  0.17368  1.0000
  C   C12       1.0  0.34580  0.48792  0.82632  1.0000
  C   C13       1.0  0.17124  0.46894  0.10992  1.0000
  C   C14       1.0  0.82875  0.53106  0.89008  1.0000
  C   C15       1.0  0.07147  0.94202  0.85235  1.0000
  C   C16       1.0  0.92853  0.05798  0.14765  1.0000
  C   C17       1.0  0.58007  0.14372  0.68155  1.0000
  C   C18       1.0  0.41992  0.85628  0.31845  1.0000
  C   C19       1.0  0.40310  0.07808  0.74359  1.0000
  C   C20       1.0  0.59690  0.92192  0.25641  1.0000
  C   C21       1.0  0.23275  0.10888  0.70175  1.0000
  C   C22       1.0  0.76724  0.89112  0.29825  1.0000
  C   C23       1.0  0.23676  0.91481  0.89644  1.0000
  C   C24       1.0  0.76324  0.08519  0.10356  1.0000
  C   C25       1.0  0.39903  0.98521  0.84159  1.0000
  C   C26       1.0  0.60097  0.01479  0.15841  1.0000
  C   C27       1.0  0.06861  0.04157  0.75613  1.0000
  C   C28       1.0  0.93139  0.95844  0.24387  1.0000
  C   C29       1.0  0.23205  0.21565  0.59771  1.0000
  C   C30       1.0  0.76795  0.78435  0.40229  1.0000
  N   N1        1.0  0.02972  0.32017  0.33877  1.0000
  N   N2        1.0  0.97028  0.67983  0.66123  1.0000
  N   N3        1.0  0.64683  0.31319  0.33393  1.0000
  N   N4        1.0  0.35317  0.68681  0.66607  1.0000
  N   N5        1.0  0.56613  0.97124  0.89208  1.0000
  N   N6        1.0  0.43387  0.02876  0.10792  1.0000
  O   O1        1.0  0.12830  0.35539  0.58634  1.0000
  O   O2        1.0  0.87170  0.64461  0.41366  1.0000
  O   O3        1.0  0.33309  0.16323  0.53158  1.0000
  O   O4        1.0  0.66691  0.83677  0.46842  1.0000
  O   O5        1.0  0.67641  0.09205  0.86568  1.0000
  O   O6        1.0  0.32359  0.90794  0.13432  1.0000
  O   O7        1.0  0.58855  0.84150  0.96046  1.0000
  O   O8        1.0  0.41144  0.15849  0.03954  1.0000
  O   O9        1.0  0.58609  0.30923  0.65932  1.0000
  O   O10       1.0  0.41391  0.69078  0.34068  1.0000
  O   O11       1.0  0.69874  0.03754  0.65504  1.0000
  O   O12       1.0  0.30126  0.96246  0.34496  1.0000
