data_image0
_chemical_formula_structural       Cu2H34C30N10O2
_chemical_formula_sum              "Cu2 H34 C30 N10 O2"
_cell_length_a       6.77641
_cell_length_b       7.97772
_cell_length_c       13.561
_cell_angle_alpha    103.571
_cell_angle_beta     89.9999
_cell_angle_gamma    90.0007

_space_group_name_H-M_alt    "P 1"
_space_group_IT_number       1

loop_
  _space_group_symop_operation_xyz
  'x, y, z'

loop_
  _atom_site_type_symbol
  _atom_site_label
  _atom_site_symmetry_multiplicity
  _atom_site_fract_x
  _atom_site_fract_y
  _atom_site_fract_z
  _atom_site_occupancy
  Cu  Cu1       1.0  0.23136  0.41129  0.16066  1.0000
  Cu  Cu2       1.0  0.73137  0.58871  0.83933  1.0000
  H   H1        1.0  0.49854  0.74878  0.36854  1.0000
  H   H2        1.0  0.99855  0.25122  0.63146  1.0000
  H   H3        1.0  0.75119  0.09600  0.30191  1.0000
  H   H4        1.0  0.25119  0.90401  0.69808  1.0000
  H   H5        1.0  0.74260  0.78643  0.21182  1.0000
  H   H6        1.0  0.24260  0.21357  0.78818  1.0000
  H   H7        1.0  0.92994  0.34472  0.39454  1.0000
  H   H8        1.0  0.42993  0.65528  0.60546  1.0000
  H   H9        1.0  0.22112  0.47567  0.49568  1.0000
  H   H10       1.0  0.72111  0.52433  0.50432  1.0000
  H   H11       1.0  0.50113  0.28425  0.52175  1.0000
  H   H12       1.0  0.00113  0.71574  0.47826  1.0000
  H   H13       1.0  0.50065  0.97992  0.44103  1.0000
  H   H14       1.0  0.00066  0.02007  0.55898  1.0000
  H   H15       1.0  0.55280  0.35143  0.33166  1.0000
  H   H16       1.0  0.05281  0.64858  0.66833  1.0000
  H   H17       1.0  0.69892  0.52754  0.31328  1.0000
  H   H18       1.0  0.19893  0.47247  0.68672  1.0000
  H   H19       1.0  0.68025  0.43055  0.13014  1.0000
  H   H20       1.0  0.18026  0.56945  0.86986  1.0000
  H   H21       1.0  0.76320  0.25282  0.17621  1.0000
  H   H22       1.0  0.26321  0.74719  0.82379  1.0000
  H   H23       1.0  0.36638  0.12239  0.97639  1.0000
  H   H24       1.0  0.86640  0.87761  0.02362  1.0000
  H   H25       1.0  0.62311  0.09465  0.99732  1.0000
  H   H26       1.0  0.12313  0.90533  0.00268  1.0000
  H   H27       1.0  0.53233  0.29910  0.98300  1.0000
  H   H28       1.0  0.03233  0.70089  0.01699  1.0000
  H   H29       1.0  0.28164  0.03020  0.13005  1.0000
  H   H30       1.0  0.78165  0.96980  0.86996  1.0000
  H   H31       1.0  0.40065  0.12707  0.24604  1.0000
  H   H32       1.0  0.90066  0.87293  0.75397  1.0000
  H   H33       1.0  0.53838  0.99221  0.14494  1.0000
  H   H34       1.0  0.03839  0.00779  0.85507  1.0000
  C   C1        1.0  0.37444  0.69026  0.32068  1.0000
  C   C2        1.0  0.87445  0.30974  0.67933  1.0000
  C   C3        1.0  0.20669  0.79714  0.31570  1.0000
  C   C4        1.0  0.70670  0.20286  0.68430  1.0000
  C   C5        1.0  0.21141  0.97722  0.36916  1.0000
  C   C6        1.0  0.71141  0.02278  0.63084  1.0000
  C   C7        1.0  0.04716  0.08631  0.36060  1.0000
  C   C8        1.0  0.54715  0.91369  0.63940  1.0000
  C   C9        1.0  0.87760  0.01269  0.30470  1.0000
  C   C10       1.0  0.37760  0.98732  0.69530  1.0000
  C   C11       1.0  0.87124  0.84280  0.25562  1.0000
  C   C12       1.0  0.37123  0.15720  0.74437  1.0000
  C   C13       1.0  0.03628  0.72997  0.25703  1.0000
  C   C14       1.0  0.53629  0.27004  0.74297  1.0000
  C   C15       1.0  0.05458  0.26479  0.40599  1.0000
  C   C16       1.0  0.55458  0.73521  0.59401  1.0000
  C   C17       1.0  0.21621  0.33753  0.46221  1.0000
  C   C18       1.0  0.71621  0.66246  0.53779  1.0000
  C   C19       1.0  0.37475  0.23045  0.47509  1.0000
  C   C20       1.0  0.87475  0.76954  0.52492  1.0000
  C   C21       1.0  0.37292  0.05569  0.42944  1.0000
  C   C22       1.0  0.87293  0.94430  0.57056  1.0000
  C   C23       1.0  0.57897  0.43863  0.28073  1.0000
  C   C24       1.0  0.07898  0.56137  0.71926  1.0000
  C   C25       1.0  0.63655  0.33877  0.17481  1.0000
  C   C26       1.0  0.13656  0.66123  0.82519  1.0000
  C   C27       1.0  0.49921  0.18633  0.01299  1.0000
  C   C28       1.0  0.99923  0.81366  0.98701  1.0000
  C   C29       1.0  0.41949  0.08878  0.16367  1.0000
  C   C30       1.0  0.91950  0.91122  0.83633  1.0000
  N   N1        1.0  0.06494  0.26455  0.05710  1.0000
  N   N2        1.0  0.56495  0.73545  0.94290  1.0000
  N   N3        1.0  0.39599  0.53022  0.27216  1.0000
  N   N4        1.0  0.89601  0.46979  0.72784  1.0000
  N   N5        1.0  0.46511  0.24039  0.12314  1.0000
  N   N6        1.0  0.96512  0.75961  0.87686  1.0000
  N   N7        1.0  0.97876  0.32722  0.99719  1.0000
  N   N8        1.0  0.47877  0.67278  0.00281  1.0000
  N   N9        1.0  0.89109  0.37979  0.93623  1.0000
  N   N10       1.0  0.39111  0.62022  0.06377  1.0000
  O   O1        1.0  0.01564  0.57234  0.20453  1.0000
  O   O2        1.0  0.51565  0.42766  0.79546  1.0000
