data_image0
_chemical_formula_structural       Li4H12C16O16
_chemical_formula_sum              "Li4 H12 C16 O16"
_cell_length_a       7.6889
_cell_length_b       8.43811
_cell_length_c       8.52257
_cell_angle_alpha    90.0004
_cell_angle_beta     112.765
_cell_angle_gamma    89.9998

_space_group_name_H-M_alt    "P 1"
_space_group_IT_number       1

loop_
  _space_group_symop_operation_xyz
  'x, y, z'

loop_
  _atom_site_type_symbol
  _atom_site_label
  _atom_site_symmetry_multiplicity
  _atom_site_fract_x
  _atom_site_fract_y
  _atom_site_fract_z
  _atom_site_occupancy
  Li  Li1       1.0  0.31886  0.48338  0.89086  1.0000
  Li  Li2       1.0  0.18115  0.98337  0.10914  1.0000
  Li  Li3       1.0  0.68114  0.51662  0.10914  1.0000
  Li  Li4       1.0  0.81886  0.01663  0.89086  1.0000
  H   H1        1.0  0.63054  0.43947  0.41881  1.0000
  H   H2        1.0  0.86945  0.93948  0.58120  1.0000
  H   H3        1.0  0.36945  0.56053  0.58119  1.0000
  H   H4        1.0  0.13055  0.06053  0.41880  1.0000
  H   H5        1.0  0.52572  0.08354  0.37598  1.0000
  H   H6        1.0  0.97427  0.58354  0.62401  1.0000
  H   H7        1.0  0.47427  0.91645  0.62402  1.0000
  H   H8        1.0  0.02573  0.41646  0.37599  1.0000
  H   H9        1.0  0.79205  0.37553  0.86675  1.0000
  H   H10       1.0  0.70795  0.87553  0.13325  1.0000
  H   H11       1.0  0.20795  0.62447  0.13325  1.0000
  H   H12       1.0  0.29205  0.12447  0.86675  1.0000
  C   C1        1.0  0.69515  0.27779  0.63796  1.0000
  C   C2        1.0  0.80485  0.77779  0.36203  1.0000
  C   C3        1.0  0.30486  0.72221  0.36203  1.0000
  C   C4        1.0  0.19515  0.22221  0.63797  1.0000
  C   C5        1.0  0.61952  0.31687  0.45432  1.0000
  C   C6        1.0  0.88048  0.81686  0.54568  1.0000
  C   C7        1.0  0.38047  0.68314  0.54568  1.0000
  C   C8        1.0  0.11952  0.18314  0.45432  1.0000
  C   C9        1.0  0.53752  0.20491  0.33727  1.0000
  C   C10       1.0  0.96248  0.70491  0.66272  1.0000
  C   C11       1.0  0.46248  0.79509  0.66272  1.0000
  C   C12       1.0  0.03753  0.29509  0.33728  1.0000
  C   C13       1.0  0.45209  0.23745  0.15091  1.0000
  C   C14       1.0  0.04790  0.73745  0.84909  1.0000
  C   C15       1.0  0.54791  0.76255  0.84909  1.0000
  C   C16       1.0  0.95209  0.26255  0.15091  1.0000
  O   O1        1.0  0.70702  0.13903  0.69097  1.0000
  O   O2        1.0  0.79298  0.63903  0.30903  1.0000
  O   O3        1.0  0.29299  0.86097  0.30903  1.0000
  O   O4        1.0  0.20703  0.36097  0.69097  1.0000
  O   O5        1.0  0.74663  0.40353  0.73721  1.0000
  O   O6        1.0  0.75337  0.90353  0.26279  1.0000
  O   O7        1.0  0.25337  0.59647  0.26278  1.0000
  O   O8        1.0  0.24663  0.09646  0.73721  1.0000
  O   O9        1.0  0.47984  0.36939  0.09364  1.0000
  O   O10       1.0  0.02015  0.86939  0.90636  1.0000
  O   O11       1.0  0.52015  0.63061  0.90636  1.0000
  O   O12       1.0  0.97985  0.13061  0.09365  1.0000
  O   O13       1.0  0.35029  0.12617  0.05762  1.0000
  O   O14       1.0  0.14970  0.62616  0.94237  1.0000
  O   O15       1.0  0.64971  0.87383  0.94237  1.0000
  O   O16       1.0  0.85030  0.37383  0.05763  1.0000
