data_image0
_chemical_formula_structural       Nd2H26C32O24
_chemical_formula_sum              "Nd2 H26 C32 O24"
_cell_length_a       8.9306
_cell_length_b       9.82724
_cell_length_c       12.0694
_cell_angle_alpha    100.253
_cell_angle_beta     103.644
_cell_angle_gamma    108.396

_space_group_name_H-M_alt    "P 1"
_space_group_IT_number       1

loop_
  _space_group_symop_operation_xyz
  'x, y, z'

loop_
  _atom_site_type_symbol
  _atom_site_label
  _atom_site_symmetry_multiplicity
  _atom_site_fract_x
  _atom_site_fract_y
  _atom_site_fract_z
  _atom_site_occupancy
  Nd  Nd1       1.0  0.26955  0.53766  0.95894  1.0000
  Nd  Nd2       1.0  0.73046  0.46234  0.04107  1.0000
  H   H1        1.0  0.43041  0.76924  0.70534  1.0000
  H   H2        1.0  0.56959  0.23076  0.29467  1.0000
  H   H3        1.0  0.68109  0.92242  0.32458  1.0000
  H   H4        1.0  0.31892  0.07758  0.67543  1.0000
  H   H5        1.0  0.67430  0.96201  0.68519  1.0000
  H   H6        1.0  0.32570  0.03800  0.31482  1.0000
  H   H7        1.0  0.27422  0.61755  0.39699  1.0000
  H   H8        1.0  0.72578  0.38245  0.60302  1.0000
  H   H9        1.0  0.65803  0.00112  0.95041  1.0000
  H   H10       1.0  0.34196  0.99888  0.04959  1.0000
  H   H11       1.0  0.09464  0.09102  0.84006  1.0000
  H   H12       1.0  0.90536  0.90898  0.15994  1.0000
  H   H13       1.0  0.77549  0.63573  0.78892  1.0000
  H   H14       1.0  0.22449  0.36427  0.21107  1.0000
  H   H15       1.0  0.14004  0.28589  0.73564  1.0000
  H   H16       1.0  0.85998  0.71411  0.26436  1.0000
  H   H17       1.0  0.92771  0.47051  0.78940  1.0000
  H   H18       1.0  0.07230  0.52949  0.21061  1.0000
  H   H19       1.0  0.04710  0.61350  0.76817  1.0000
  H   H20       1.0  0.95290  0.38649  0.23183  1.0000
  H   H21       1.0  0.33027  0.30335  0.79615  1.0000
  H   H22       1.0  0.66975  0.69665  0.20387  1.0000
  H   H23       1.0  0.12015  0.87499  0.73285  1.0000
  H   H24       1.0  0.87986  0.12502  0.26716  1.0000
  H   H25       1.0  0.01508  0.21358  0.50161  1.0000
  H   H26       1.0  0.98492  0.78642  0.49838  1.0000
  C   C1        1.0  0.39979  0.68595  0.21795  1.0000
  C   C2        1.0  0.60022  0.31404  0.78206  1.0000
  C   C3        1.0  0.47212  0.76124  0.34771  1.0000
  C   C4        1.0  0.52788  0.23876  0.65229  1.0000
  C   C5        1.0  0.62291  0.88321  0.38836  1.0000
  C   C6        1.0  0.37708  0.11679  0.61165  1.0000
  C   C7        1.0  0.69520  0.95417  0.50963  1.0000
  C   C8        1.0  0.30480  0.04584  0.49037  1.0000
  C   C9        1.0  0.61697  0.90408  0.59112  1.0000
  C   C10       1.0  0.38302  0.09593  0.40889  1.0000
  C   C11       1.0  0.46450  0.78253  0.54987  1.0000
  C   C12       1.0  0.53551  0.21747  0.45014  1.0000
  C   C13       1.0  0.39304  0.71134  0.42785  1.0000
  C   C14       1.0  0.60696  0.28866  0.57216  1.0000
  C   C15       1.0  0.85342  0.08530  0.55322  1.0000
  C   C16       1.0  0.14659  0.91472  0.44680  1.0000
  C   C17       1.0  0.55443  0.70309  0.89048  1.0000
  C   C18       1.0  0.44557  0.29691  0.10952  1.0000
  C   C19       1.0  0.70234  0.80723  0.87184  1.0000
  C   C20       1.0  0.29765  0.19277  0.12816  1.0000
  C   C21       1.0  0.73784  0.95998  0.91003  1.0000
  C   C22       1.0  0.26216  0.04002  0.08996  1.0000
  C   C23       1.0  0.88093  0.06163  0.90025  1.0000
  C   C24       1.0  0.11907  0.93837  0.09975  1.0000
  C   C25       1.0  0.98349  0.01031  0.84702  1.0000
  C   C26       1.0  0.01650  0.98969  0.15298  1.0000
  C   C27       1.0  0.94118  0.85705  0.80325  1.0000
  C   C28       1.0  0.05881  0.14295  0.19674  1.0000
  C   C29       1.0  0.80317  0.75484  0.81817  1.0000
  C   C30       1.0  0.19681  0.24516  0.18182  1.0000
  C   C31       1.0  0.92029  0.22509  0.94820  1.0000
  C   C32       1.0  0.07971  0.77491  0.05180  1.0000
  O   O1        1.0  0.25541  0.58299  0.17525  1.0000
  O   O2        1.0  0.74460  0.41701  0.82476  1.0000
  O   O3        1.0  0.48737  0.72517  0.15054  1.0000
  O   O4        1.0  0.51264  0.27482  0.84947  1.0000
  O   O5        1.0  0.37475  0.72740  0.61931  1.0000
  O   O6        1.0  0.62525  0.27260  0.38070  1.0000
  O   O7        1.0  0.92531  0.15661  0.65750  1.0000
  O   O8        1.0  0.07468  0.84340  0.34248  1.0000
  O   O9        1.0  0.91549  0.12224  0.46515  1.0000
  O   O10       1.0  0.08451  0.87776  0.53484  1.0000
  O   O11       1.0  0.56611  0.59909  0.93885  1.0000
  O   O12       1.0  0.43390  0.40091  0.06115  1.0000
  O   O13       1.0  0.41796  0.72286  0.86027  1.0000
  O   O14       1.0  0.58203  0.27713  0.13973  1.0000
  O   O15       1.0  0.03170  0.79745  0.74585  1.0000
  O   O16       1.0  0.96829  0.20255  0.25415  1.0000
  O   O17       1.0  0.04904  0.31830  0.93839  1.0000
  O   O18       1.0  0.95095  0.68170  0.06160  1.0000
  O   O19       1.0  0.82080  0.25990  0.99623  1.0000
  O   O20       1.0  0.17921  0.74010  0.00377  1.0000
  O   O21       1.0  0.25434  0.35726  0.77870  1.0000
  O   O22       1.0  0.74568  0.64274  0.22131  1.0000
  O   O23       1.0  0.03862  0.51499  0.77929  1.0000
  O   O24       1.0  0.96138  0.48500  0.22071  1.0000
