data_image0
_chemical_formula_structural       Zn4H24C16S8N32
_chemical_formula_sum              "Zn4 H24 C16 S8 N32"
_cell_length_a       10.0289
_cell_length_b       10.0288
_cell_length_c       12.1147
_cell_angle_alpha    67.7511
_cell_angle_beta     67.7509
_cell_angle_gamma    84.7261

_space_group_name_H-M_alt    "P 1"
_space_group_IT_number       1

loop_
  _space_group_symop_operation_xyz
  'x, y, z'

loop_
  _atom_site_type_symbol
  _atom_site_label
  _atom_site_symmetry_multiplicity
  _atom_site_fract_x
  _atom_site_fract_y
  _atom_site_fract_z
  _atom_site_occupancy
  Zn  Zn1       1.0  0.33966  0.96765  0.67186  1.0000
  Zn  Zn2       1.0  0.03235  0.66034  0.82814  1.0000
  Zn  Zn3       1.0  0.66034  0.03234  0.32814  1.0000
  Zn  Zn4       1.0  0.96765  0.33966  0.17186  1.0000
  H   H1        1.0  0.24215  0.51169  0.40033  1.0000
  H   H2        1.0  0.48831  0.75785  0.09967  1.0000
  H   H3        1.0  0.75785  0.48831  0.59967  1.0000
  H   H4        1.0  0.51169  0.24215  0.90033  1.0000
  H   H5        1.0  0.35694  0.50217  0.48600  1.0000
  H   H6        1.0  0.49784  0.64306  0.01399  1.0000
  H   H7        1.0  0.64306  0.49783  0.51400  1.0000
  H   H8        1.0  0.50217  0.35694  0.98600  1.0000
  H   H9        1.0  0.21163  0.37003  0.55374  1.0000
  H   H10       1.0  0.62997  0.78837  0.94626  1.0000
  H   H11       1.0  0.78837  0.62997  0.44626  1.0000
  H   H12       1.0  0.37003  0.21163  0.05373  1.0000
  H   H13       1.0  0.23844  0.94027  0.23321  1.0000
  H   H14       1.0  0.05973  0.76156  0.26679  1.0000
  H   H15       1.0  0.76156  0.05974  0.76679  1.0000
  H   H16       1.0  0.94027  0.23844  0.73321  1.0000
  H   H17       1.0  0.33573  0.02036  0.29256  1.0000
  H   H18       1.0  0.97964  0.66427  0.20744  1.0000
  H   H19       1.0  0.66427  0.97964  0.70744  1.0000
  H   H20       1.0  0.02036  0.33573  0.79256  1.0000
  H   H21       1.0  0.16031  0.07765  0.29551  1.0000
  H   H22       1.0  0.92235  0.83969  0.20449  1.0000
  H   H23       1.0  0.83969  0.92235  0.70449  1.0000
  H   H24       1.0  0.07765  0.16031  0.79551  1.0000
  C   C1        1.0  0.46792  0.24395  0.44125  1.0000
  C   C2        1.0  0.75605  0.53208  0.05875  1.0000
  C   C3        1.0  0.53208  0.75605  0.55875  1.0000
  C   C4        1.0  0.24395  0.46792  0.94125  1.0000
  C   C5        1.0  0.29358  0.43951  0.46386  1.0000
  C   C6        1.0  0.56050  0.70642  0.03613  1.0000
  C   C7        1.0  0.70643  0.56050  0.53613  1.0000
  C   C8        1.0  0.43950  0.29357  0.96386  1.0000
  C   C9        1.0  0.14529  0.87918  0.54674  1.0000
  C   C10       1.0  0.12082  0.85470  0.95326  1.0000
  C   C11       1.0  0.85471  0.12082  0.45326  1.0000
  C   C12       1.0  0.87918  0.14529  0.04674  1.0000
  C   C13       1.0  0.22882  0.98547  0.30493  1.0000
  C   C14       1.0  0.01452  0.77118  0.19507  1.0000
  C   C15       1.0  0.77117  0.01453  0.69507  1.0000
  C   C16       1.0  0.98547  0.22882  0.80493  1.0000
  S   S1        1.0  0.47653  0.18377  0.59063  1.0000
  S   S2        1.0  0.81623  0.52347  0.90937  1.0000
  S   S3        1.0  0.52346  0.81623  0.40938  1.0000
  S   S4        1.0  0.18377  0.47653  0.09063  1.0000
  S   S5        1.0  0.17941  0.03011  0.56720  1.0000
  S   S6        1.0  0.96989  0.82058  0.93280  1.0000
  S   S7        1.0  0.82059  0.96989  0.43280  1.0000
  S   S8        1.0  0.03011  0.17941  0.06720  1.0000
  N   N1        1.0  0.38653  0.35172  0.39802  1.0000
  N   N2        1.0  0.64829  0.61347  0.10198  1.0000
  N   N3        1.0  0.61347  0.64829  0.60198  1.0000
  N   N4        1.0  0.35171  0.38653  0.89802  1.0000
  N   N5        1.0  0.40314  0.37113  0.27668  1.0000
  N   N6        1.0  0.62888  0.59686  0.22332  1.0000
  N   N7        1.0  0.59686  0.62887  0.72333  1.0000
  N   N8        1.0  0.37112  0.40314  0.77667  1.0000
  N   N9        1.0  0.49249  0.27870  0.24412  1.0000
  N   N10       1.0  0.72130  0.50751  0.25588  1.0000
  N   N11       1.0  0.50751  0.72129  0.75589  1.0000
  N   N12       1.0  0.27870  0.49249  0.74412  1.0000
  N   N13       1.0  0.53536  0.19918  0.34281  1.0000
  N   N14       1.0  0.80082  0.46464  0.15719  1.0000
  N   N15       1.0  0.46464  0.80081  0.65720  1.0000
  N   N16       1.0  0.19918  0.53536  0.84281  1.0000
  N   N17       1.0  0.16504  0.87375  0.43132  1.0000
  N   N18       1.0  0.12625  0.83495  0.06868  1.0000
  N   N19       1.0  0.83496  0.12626  0.56868  1.0000
  N   N20       1.0  0.87374  0.16504  0.93132  1.0000
  N   N21       1.0  0.11916  0.74173  0.44884  1.0000
  N   N22       1.0  0.25827  0.88084  0.05116  1.0000
  N   N23       1.0  0.88084  0.25827  0.55116  1.0000
  N   N24       1.0  0.74173  0.11916  0.94884  1.0000
  N   N25       1.0  0.07296  0.66630  0.57103  1.0000
  N   N26       1.0  0.33370  0.92704  0.92897  1.0000
  N   N27       1.0  0.92704  0.33370  0.42897  1.0000
  N   N28       1.0  0.66630  0.07296  0.07103  1.0000
  N   N29       1.0  0.08704  0.74749  0.63437  1.0000
  N   N30       1.0  0.25251  0.91296  0.86563  1.0000
  N   N31       1.0  0.91296  0.25251  0.36563  1.0000
  N   N32       1.0  0.74749  0.08704  0.13437  1.0000
