data_image0
_chemical_formula_structural       Sr2P8H28C8O28
_chemical_formula_sum              "Sr2 P8 H28 C8 O28"
_cell_length_a       7.96998
_cell_length_b       10.9614
_cell_length_c       10.9615
_cell_angle_alpha    68.3977
_cell_angle_beta     82.322
_cell_angle_gamma    82.3216

_space_group_name_H-M_alt    "P 1"
_space_group_IT_number       1

loop_
  _space_group_symop_operation_xyz
  'x, y, z'

loop_
  _atom_site_type_symbol
  _atom_site_label
  _atom_site_symmetry_multiplicity
  _atom_site_fract_x
  _atom_site_fract_y
  _atom_site_fract_z
  _atom_site_occupancy
  Sr  Sr1       1.0  0.25000  0.03524  0.96476  1.0000
  Sr  Sr2       1.0  0.75000  0.96476  0.03524  1.0000
  P   P1        1.0  0.97050  0.11907  0.70900  1.0000
  P   P2        1.0  0.52949  0.29101  0.88093  1.0000
  P   P3        1.0  0.02950  0.88093  0.29100  1.0000
  P   P4        1.0  0.47050  0.70899  0.11907  1.0000
  P   P5        1.0  0.22629  0.87919  0.72438  1.0000
  P   P6        1.0  0.27372  0.27563  0.12082  1.0000
  P   P7        1.0  0.77371  0.12081  0.27563  1.0000
  P   P8        1.0  0.72628  0.72437  0.87918  1.0000
  H   H1        1.0  0.33424  0.07362  0.46934  1.0000
  H   H2        1.0  0.16574  0.53066  0.92639  1.0000
  H   H3        1.0  0.66577  0.92637  0.53067  1.0000
  H   H4        1.0  0.83426  0.46934  0.07362  1.0000
  H   H5        1.0  0.20518  0.22081  0.46470  1.0000
  H   H6        1.0  0.29478  0.53530  0.77919  1.0000
  H   H7        1.0  0.79483  0.77918  0.53530  1.0000
  H   H8        1.0  0.70521  0.46470  0.22081  1.0000
  H   H9        1.0  0.11123  0.08404  0.46014  1.0000
  H   H10       1.0  0.38875  0.53987  0.91595  1.0000
  H   H11       1.0  0.88878  0.91595  0.53986  1.0000
  H   H12       1.0  0.61125  0.46013  0.08405  1.0000
  H   H13       1.0  0.41479  0.10305  0.66436  1.0000
  H   H14       1.0  0.08520  0.33565  0.89695  1.0000
  H   H15       1.0  0.58521  0.89695  0.33564  1.0000
  H   H16       1.0  0.91480  0.66435  0.10305  1.0000
  H   H17       1.0  0.89265  0.28899  0.54345  1.0000
  H   H18       1.0  0.60733  0.45657  0.71101  1.0000
  H   H19       1.0  0.10736  0.71101  0.45655  1.0000
  H   H20       1.0  0.39267  0.54344  0.28899  1.0000
  H   H21       1.0  0.78246  0.96685  0.74829  1.0000
  H   H22       1.0  0.71753  0.25171  0.03315  1.0000
  H   H23       1.0  0.21754  0.03315  0.25171  1.0000
  H   H24       1.0  0.28247  0.74829  0.96684  1.0000
  H   H25       1.0  0.49619  0.78289  0.72878  1.0000
  H   H26       1.0  0.00381  0.27122  0.21712  1.0000
  H   H27       1.0  0.50381  0.21711  0.27122  1.0000
  H   H28       1.0  0.99619  0.72878  0.78289  1.0000
  C   C1        1.0  0.18413  0.06138  0.65138  1.0000
  C   C2        1.0  0.31586  0.34862  0.93863  1.0000
  C   C3        1.0  0.81587  0.93862  0.34862  1.0000
  C   C4        1.0  0.68414  0.65138  0.06137  1.0000
  C   C5        1.0  0.20983  0.11287  0.50210  1.0000
  C   C6        1.0  0.29015  0.49791  0.88713  1.0000
  C   C7        1.0  0.79017  0.88713  0.49790  1.0000
  C   C8        1.0  0.70985  0.50209  0.11287  1.0000
  O   O1        1.0  0.30076  0.11460  0.70664  1.0000
  O   O2        1.0  0.19923  0.29336  0.88541  1.0000
  O   O3        1.0  0.69924  0.88540  0.29336  1.0000
  O   O4        1.0  0.80077  0.70664  0.11459  1.0000
  O   O5        1.0  0.96624  0.09836  0.85356  1.0000
  O   O6        1.0  0.53376  0.14644  0.90164  1.0000
  O   O7        1.0  0.03376  0.90164  0.14644  1.0000
  O   O8        1.0  0.46624  0.85356  0.09835  1.0000
  O   O9        1.0  0.94402  0.27304  0.62477  1.0000
  O   O10       1.0  0.55597  0.37524  0.72697  1.0000
  O   O11       1.0  0.05598  0.72696  0.37523  1.0000
  O   O12       1.0  0.44403  0.62477  0.27303  1.0000
  O   O13       1.0  0.83588  0.05459  0.67030  1.0000
  O   O14       1.0  0.66412  0.32970  0.94541  1.0000
  O   O15       1.0  0.16413  0.94541  0.32970  1.0000
  O   O16       1.0  0.33588  0.67030  0.05459  1.0000
  O   O17       1.0  0.10439  0.80811  0.68498  1.0000
  O   O18       1.0  0.39561  0.31502  0.19189  1.0000
  O   O19       1.0  0.89561  0.19188  0.31502  1.0000
  O   O20       1.0  0.60439  0.68498  0.80811  1.0000
  O   O21       1.0  0.21635  0.85110  0.87447  1.0000
  O   O22       1.0  0.28366  0.12552  0.14890  1.0000
  O   O23       1.0  0.78365  0.14890  0.12553  1.0000
  O   O24       1.0  0.71633  0.87448  0.85109  1.0000
  O   O25       1.0  0.41320  0.85887  0.66576  1.0000
  O   O26       1.0  0.08680  0.33423  0.14114  1.0000
  O   O27       1.0  0.58680  0.14113  0.33424  1.0000
  O   O28       1.0  0.91320  0.66577  0.85886  1.0000
