data_image0
_chemical_formula_structural       Zn4H28C40N4O16
_chemical_formula_sum              "Zn4 H28 C40 N4 O16"
_cell_length_a       9.66722
_cell_length_b       9.66724
_cell_length_c       14.2355
_cell_angle_alpha    76.9861
_cell_angle_beta     76.9861
_cell_angle_gamma    64.1747

_space_group_name_H-M_alt    "P 1"
_space_group_IT_number       1

loop_
  _space_group_symop_operation_xyz
  'x, y, z'

loop_
  _atom_site_type_symbol
  _atom_site_label
  _atom_site_symmetry_multiplicity
  _atom_site_fract_x
  _atom_site_fract_y
  _atom_site_fract_z
  _atom_site_occupancy
  Zn  Zn1       1.0  0.09403  0.59136  0.48542  1.0000
  Zn  Zn2       1.0  0.40864  0.90598  0.01459  1.0000
  Zn  Zn3       1.0  0.90597  0.40864  0.51458  1.0000
  Zn  Zn4       1.0  0.59135  0.09403  0.98542  1.0000
  H   H1        1.0  0.58594  0.74175  0.73036  1.0000
  H   H2        1.0  0.25825  0.41406  0.76964  1.0000
  H   H3        1.0  0.41406  0.25825  0.26964  1.0000
  H   H4        1.0  0.74175  0.58595  0.23036  1.0000
  H   H5        1.0  0.83837  0.86595  0.70799  1.0000
  H   H6        1.0  0.13406  0.16161  0.79200  1.0000
  H   H7        1.0  0.16162  0.13405  0.29201  1.0000
  H   H8        1.0  0.86596  0.83837  0.20799  1.0000
  H   H9        1.0  0.05540  0.86395  0.56587  1.0000
  H   H10       1.0  0.13604  0.94460  0.93413  1.0000
  H   H11       1.0  0.94460  0.13604  0.43413  1.0000
  H   H12       1.0  0.86395  0.05540  0.06587  1.0000
  H   H13       1.0  0.20850  0.01368  0.56671  1.0000
  H   H14       1.0  0.98632  0.79150  0.93329  1.0000
  H   H15       1.0  0.79150  0.98632  0.43330  1.0000
  H   H16       1.0  0.01368  0.20850  0.06671  1.0000
  H   H17       1.0  0.58737  0.69307  0.39006  1.0000
  H   H18       1.0  0.30693  0.41263  0.10994  1.0000
  H   H19       1.0  0.41262  0.30693  0.60994  1.0000
  H   H20       1.0  0.69307  0.58737  0.89005  1.0000
  H   H21       1.0  0.41234  0.56244  0.39285  1.0000
  H   H22       1.0  0.43755  0.58766  0.10715  1.0000
  H   H23       1.0  0.58766  0.43756  0.60716  1.0000
  H   H24       1.0  0.56244  0.41234  0.89284  1.0000
  H   H25       1.0  0.62897  0.89465  0.42999  1.0000
  H   H26       1.0  0.10535  0.37103  0.07001  1.0000
  H   H27       1.0  0.37103  0.10535  0.57001  1.0000
  H   H28       1.0  0.89465  0.62897  0.92998  1.0000
  C   C1        1.0  0.78313  0.69004  0.61069  1.0000
  C   C2        1.0  0.30996  0.21687  0.88931  1.0000
  C   C3        1.0  0.21688  0.30996  0.38931  1.0000
  C   C4        1.0  0.69004  0.78313  0.11069  1.0000
  C   C5        1.0  0.68899  0.76429  0.69792  1.0000
  C   C6        1.0  0.23571  0.31101  0.80208  1.0000
  C   C7        1.0  0.31101  0.23571  0.30208  1.0000
  C   C8        1.0  0.76429  0.68900  0.19792  1.0000
  C   C9        1.0  0.73547  0.84353  0.74095  1.0000
  C   C10       1.0  0.15648  0.26452  0.75905  1.0000
  C   C11       1.0  0.26452  0.15647  0.25905  1.0000
  C   C12       1.0  0.84354  0.73547  0.24094  1.0000
  C   C13       1.0  0.65353  0.90320  0.83460  1.0000
  C   C14       1.0  0.09681  0.34647  0.66540  1.0000
  C   C15       1.0  0.34647  0.09680  0.16540  1.0000
  C   C16       1.0  0.90320  0.65353  0.33460  1.0000
  C   C17       1.0  0.17390  0.83154  0.52778  1.0000
  C   C18       1.0  0.16846  0.82611  0.97222  1.0000
  C   C19       1.0  0.82611  0.16846  0.47223  1.0000
  C   C20       1.0  0.83154  0.17389  0.02777  1.0000
  C   C21       1.0  0.26125  0.91285  0.52856  1.0000
  C   C22       1.0  0.08715  0.73875  0.97144  1.0000
  C   C23       1.0  0.73875  0.08715  0.47145  1.0000
  C   C24       1.0  0.91285  0.26125  0.02855  1.0000
  C   C25       1.0  0.41420  0.86516  0.47847  1.0000
  C   C26       1.0  0.13483  0.58581  0.02153  1.0000
  C   C27       1.0  0.58581  0.13483  0.52154  1.0000
  C   C28       1.0  0.86517  0.41420  0.97847  1.0000
  C   C29       1.0  0.46908  0.73672  0.42863  1.0000
  C   C30       1.0  0.26327  0.53092  0.07137  1.0000
  C   C31       1.0  0.53092  0.26328  0.57138  1.0000
  C   C32       1.0  0.73672  0.46908  0.92862  1.0000
  C   C33       1.0  0.37372  0.66236  0.43056  1.0000
  C   C34       1.0  0.33763  0.62628  0.06944  1.0000
  C   C35       1.0  0.62628  0.33764  0.56945  1.0000
  C   C36       1.0  0.66236  0.37372  0.93055  1.0000
  C   C37       1.0  0.51650  0.94101  0.47556  1.0000
  C   C38       1.0  0.05899  0.48350  0.02444  1.0000
  C   C39       1.0  0.48350  0.05899  0.52444  1.0000
  C   C40       1.0  0.94101  0.51650  0.97556  1.0000
  N   N1        1.0  0.22833  0.70820  0.47970  1.0000
  N   N2        1.0  0.29180  0.77167  0.02030  1.0000
  N   N3        1.0  0.77167  0.29180  0.52030  1.0000
  N   N4        1.0  0.70820  0.22833  0.97970  1.0000
  O   O1        1.0  0.89154  0.73070  0.56419  1.0000
  O   O2        1.0  0.26930  0.10846  0.93581  1.0000
  O   O3        1.0  0.10846  0.26930  0.43581  1.0000
  O   O4        1.0  0.73070  0.89154  0.06419  1.0000
  O   O5        1.0  0.75008  0.58561  0.59200  1.0000
  O   O6        1.0  0.41439  0.24992  0.90800  1.0000
  O   O7        1.0  0.24992  0.41439  0.40800  1.0000
  O   O8        1.0  0.58560  0.75008  0.09200  1.0000
  O   O9        1.0  0.69918  0.99232  0.86075  1.0000
  O   O10       1.0  0.00768  0.30082  0.63925  1.0000
  O   O11       1.0  0.30081  0.00769  0.13925  1.0000
  O   O12       1.0  0.99233  0.69917  0.36075  1.0000
  O   O13       1.0  0.54737  0.85900  0.88153  1.0000
  O   O14       1.0  0.14100  0.45263  0.61848  1.0000
  O   O15       1.0  0.45263  0.14100  0.11848  1.0000
  O   O16       1.0  0.85900  0.54737  0.38152  1.0000
