data_image0
_chemical_formula_structural       CuH20C14S4N2O8
_chemical_formula_sum              "Cu1 H20 C14 S4 N2 O8"
_cell_length_a       6.9042
_cell_length_b       7.67107
_cell_length_c       10.1984
_cell_angle_alpha    68.4502
_cell_angle_beta     81.6879
_cell_angle_gamma    74.9135

_space_group_name_H-M_alt    "P 1"
_space_group_IT_number       1

loop_
  _space_group_symop_operation_xyz
  'x, y, z'

loop_
  _atom_site_type_symbol
  _atom_site_label
  _atom_site_symmetry_multiplicity
  _atom_site_fract_x
  _atom_site_fract_y
  _atom_site_fract_z
  _atom_site_occupancy
  Cu  Cu1       1.0  0.50001  1.00000  0.50000  1.0000
  H   H1        1.0  0.11881  0.88401  0.52302  1.0000
  H   H2        1.0  0.88120  0.11600  0.47698  1.0000
  H   H3        1.0  0.97859  0.69409  0.42602  1.0000
  H   H4        1.0  0.02141  0.30592  0.57398  1.0000
  H   H5        1.0  0.57445  0.52906  0.24386  1.0000
  H   H6        1.0  0.42555  0.47094  0.75614  1.0000
  H   H7        1.0  0.68872  0.72539  0.34820  1.0000
  H   H8        1.0  0.31129  0.27460  0.65180  1.0000
  H   H9        1.0  0.56065  0.87173  0.87876  1.0000
  H   H10       1.0  0.43934  0.12827  0.12124  1.0000
  H   H11       1.0  0.39400  0.76842  0.02072  1.0000
  H   H12       1.0  0.60599  0.23158  0.97928  1.0000
  H   H13       1.0  0.32431  0.02351  0.91441  1.0000
  H   H14       1.0  0.67567  0.97650  0.08559  1.0000
  H   H15       1.0  0.99056  0.99959  0.87348  1.0000
  H   H16       1.0  0.00943  0.00041  0.12653  1.0000
  H   H17       1.0  0.02429  0.74144  0.97027  1.0000
  H   H18       1.0  0.97571  0.25856  0.02973  1.0000
  H   H19       1.0  0.94356  0.84199  0.79239  1.0000
  H   H20       1.0  0.05642  0.15801  0.20761  1.0000
  C   C1        1.0  0.21391  0.80384  0.46027  1.0000
  C   C2        1.0  0.78610  0.19616  0.53973  1.0000
  C   C3        1.0  0.13707  0.69526  0.40626  1.0000
  C   C4        1.0  0.86295  0.30474  0.59374  1.0000
  C   C5        1.0  0.26499  0.59613  0.32545  1.0000
  C   C6        1.0  0.73501  0.40387  0.67456  1.0000
  C   C7        1.0  0.46716  0.60510  0.30480  1.0000
  C   C8        1.0  0.53284  0.39491  0.69520  1.0000
  C   C9        1.0  0.53265  0.71525  0.36345  1.0000
  C   C10       1.0  0.46737  0.28475  0.63655  1.0000
  C   C11       1.0  0.40306  0.87875  0.91628  1.0000
  C   C12       1.0  0.59692  0.12125  0.08371  1.0000
  C   C13       1.0  0.03385  0.85477  0.86711  1.0000
  C   C14       1.0  0.96614  0.14524  0.13289  1.0000
  S   S1        1.0  0.17261  0.45828  0.24922  1.0000
  S   S2        1.0  0.82739  0.54172  0.75078  1.0000
  S   S3        1.0  0.28926  0.81326  0.79918  1.0000
  S   S4        1.0  0.71073  0.18674  0.20082  1.0000
  N   N1        1.0  0.40753  0.81640  0.43801  1.0000
  N   N2        1.0  0.59248  0.18359  0.56199  1.0000
  O   O1        1.0  0.22898  0.25765  0.34715  1.0000
  O   O2        1.0  0.77104  0.74234  0.65284  1.0000
  O   O3        1.0  0.95527  0.53572  0.24446  1.0000
  O   O4        1.0  0.04475  0.46428  0.75555  1.0000
  O   O5        1.0  0.27893  0.48740  0.11044  1.0000
  O   O6        1.0  0.72107  0.51260  0.88956  1.0000
  O   O7        1.0  0.28183  0.98300  0.65681  1.0000
  O   O8        1.0  0.71816  0.01700  0.34319  1.0000
