data_image0
_chemical_formula_structural       Cd4H16C24N20Cl4
_chemical_formula_sum              "Cd4 H16 C24 N20 Cl4"
_cell_length_a       8.04508
_cell_length_b       9.32365
_cell_length_c       10.6375
_cell_angle_alpha    81.5839
_cell_angle_beta     88.2573
_cell_angle_gamma    89.4252

_space_group_name_H-M_alt    "P 1"
_space_group_IT_number       1

loop_
  _space_group_symop_operation_xyz
  'x, y, z'

loop_
  _atom_site_type_symbol
  _atom_site_label
  _atom_site_symmetry_multiplicity
  _atom_site_fract_x
  _atom_site_fract_y
  _atom_site_fract_z
  _atom_site_occupancy
  Cd  Cd1       1.0  0.21248  0.75917  0.21229  1.0000
  Cd  Cd2       1.0  0.78752  0.24083  0.78771  1.0000
  Cd  Cd3       1.0  1.00000  0.50000  0.50000  1.0000
  Cd  Cd4       1.0  0.50000  0.50000  1.00000  1.0000
  H   H1        1.0  0.54570  0.36871  0.56520  1.0000
  H   H2        1.0  0.45430  0.63129  0.43480  1.0000
  H   H3        1.0  0.01549  0.99487  0.33314  1.0000
  H   H4        1.0  0.98451  0.00513  0.66686  1.0000
  H   H5        1.0  0.24766  0.03620  0.97709  1.0000
  H   H6        1.0  0.75233  0.96380  0.02291  1.0000
  H   H7        1.0  0.21732  0.03479  0.48113  1.0000
  H   H8        1.0  0.78267  0.96521  0.51887  1.0000
  H   H9        1.0  0.99808  0.40935  0.09438  1.0000
  H   H10       1.0  0.00192  0.59065  0.90562  1.0000
  H   H11       1.0  0.51632  0.98175  0.81358  1.0000
  H   H12       1.0  0.48368  0.01825  0.18642  1.0000
  H   H13       1.0  0.92447  0.25480  0.30164  1.0000
  H   H14       1.0  0.07554  0.74520  0.69836  1.0000
  H   H15       1.0  0.31271  0.88149  0.68085  1.0000
  H   H16       1.0  0.68729  0.11851  0.31915  1.0000
  C   C1        1.0  0.33652  0.31262  0.39080  1.0000
  C   C2        1.0  0.66348  0.68738  0.60920  1.0000
  C   C3        1.0  0.37141  0.21584  0.50942  1.0000
  C   C4        1.0  0.62859  0.78417  0.49058  1.0000
  C   C5        1.0  0.48727  0.26293  0.58958  1.0000
  C   C6        1.0  0.51273  0.73707  0.41042  1.0000
  C   C7        1.0  0.04671  0.06709  0.24560  1.0000
  C   C8        1.0  0.95329  0.93291  0.75440  1.0000
  C   C9        1.0  0.17629  0.08940  0.04615  1.0000
  C   C10       1.0  0.82371  0.91060  0.95385  1.0000
  C   C11       1.0  0.30519  0.07690  0.54222  1.0000
  C   C12       1.0  0.69481  0.92310  0.45778  1.0000
  C   C13       1.0  0.16416  0.32424  0.89631  1.0000
  C   C14       1.0  0.83583  0.67576  0.10369  1.0000
  C   C15       1.0  0.12908  0.23511  0.01997  1.0000
  C   C16       1.0  0.87091  0.76489  0.98003  1.0000
  C   C17       1.0  0.03745  0.29640  0.11278  1.0000
  C   C18       1.0  0.96254  0.70360  0.88721  1.0000
  C   C19       1.0  0.47194  0.04732  0.72768  1.0000
  C   C20       1.0  0.52806  0.95268  0.27232  1.0000
  C   C21       1.0  0.99611  0.21132  0.22732  1.0000
  C   C22       1.0  0.00389  0.78868  0.77268  1.0000
  C   C23       1.0  0.35625  0.99191  0.65315  1.0000
  C   C24       1.0  0.64375  0.00809  0.34685  1.0000
  N   N1        1.0  0.24726  0.43681  0.38467  1.0000
  N   N2        1.0  0.75274  0.56319  0.61533  1.0000
  N   N3        1.0  0.26845  0.50276  0.26478  1.0000
  N   N4        1.0  0.73155  0.49724  0.73522  1.0000
  N   N5        1.0  0.36520  0.42079  0.20167  1.0000
  N   N6        1.0  0.63480  0.57921  0.79833  1.0000
  N   N7        1.0  0.40964  0.30051  0.27735  1.0000
  N   N8        1.0  0.59036  0.69949  0.72265  1.0000
  N   N9        1.0  0.13528  0.00702  0.15714  1.0000
  N   N10       1.0  0.86472  0.99298  0.84286  1.0000
  N   N11       1.0  0.53723  0.18041  0.69595  1.0000
  N   N12       1.0  0.46277  0.81959  0.30405  1.0000
  N   N13       1.0  0.06430  0.32893  0.79708  1.0000
  N   N14       1.0  0.93570  0.67107  0.20292  1.0000
  N   N15       1.0  0.26377  0.48619  0.74847  1.0000
  N   N16       1.0  0.73623  0.51381  0.25153  1.0000
  N   N17       1.0  0.28776  0.42128  0.86833  1.0000
  N   N18       1.0  0.71224  0.57872  0.13166  1.0000
  N   N19       1.0  0.13031  0.43106  0.70670  1.0000
  N   N20       1.0  0.86969  0.56894  0.29330  1.0000
  Cl  Cl1       1.0  0.10625  0.76281  0.46179  1.0000
  Cl  Cl2       1.0  0.89375  0.23719  0.53821  1.0000
  Cl  Cl3       1.0  0.35035  0.75494  0.99007  1.0000
  Cl  Cl4       1.0  0.64965  0.24505  0.00993  1.0000
