data_image0
_chemical_formula_structural       Cu4P4H28C24O16
_chemical_formula_sum              "Cu4 P4 H28 C24 O16"
_cell_length_a       7.45019
_cell_length_b       7.52162
_cell_length_c       14.0204
_cell_angle_alpha    89.988
_cell_angle_beta     91.476
_cell_angle_gamma    90.0219

_space_group_name_H-M_alt    "P 1"
_space_group_IT_number       1

loop_
  _space_group_symop_operation_xyz
  'x, y, z'

loop_
  _atom_site_type_symbol
  _atom_site_label
  _atom_site_symmetry_multiplicity
  _atom_site_fract_x
  _atom_site_fract_y
  _atom_site_fract_z
  _atom_site_occupancy
  Cu  Cu1       1.0  0.93779  0.81044  0.02241  1.0000
  Cu  Cu2       1.0  0.56227  0.31030  0.97773  1.0000
  Cu  Cu3       1.0  0.06184  0.18932  0.97756  1.0000
  Cu  Cu4       1.0  0.43819  0.68948  0.02233  1.0000
  P   P1        1.0  0.64114  0.95517  0.88602  1.0000
  P   P2        1.0  0.85933  0.45528  0.11406  1.0000
  P   P3        1.0  0.35888  0.04487  0.11399  1.0000
  P   P4        1.0  0.14071  0.54475  0.88594  1.0000
  H   H1        1.0  0.87348  0.05435  0.13120  1.0000
  H   H2        1.0  0.62643  0.55439  0.86889  1.0000
  H   H3        1.0  0.12658  0.94551  0.86889  1.0000
  H   H4        1.0  0.37347  0.44552  0.13103  1.0000
  H   H5        1.0  0.70667  0.92180  0.12816  1.0000
  H   H6        1.0  0.79297  0.42165  0.87184  1.0000
  H   H7        1.0  0.29312  0.07839  0.87186  1.0000
  H   H8        1.0  0.20713  0.57854  0.12809  1.0000
  H   H9        1.0  0.88586  0.75519  0.76724  1.0000
  H   H10       1.0  0.61398  0.25522  0.23279  1.0000
  H   H11       1.0  0.11413  0.24484  0.23280  1.0000
  H   H12       1.0  0.38602  0.74480  0.76718  1.0000
  H   H13       1.0  0.95517  0.77145  0.59649  1.0000
  H   H14       1.0  0.54475  0.27135  0.40355  1.0000
  H   H15       1.0  0.04479  0.22851  0.40354  1.0000
  H   H16       1.0  0.45527  0.72863  0.59643  1.0000
  H   H17       1.0  0.79401  0.99162  0.49040  1.0000
  H   H18       1.0  0.70593  0.49153  0.50961  1.0000
  H   H19       1.0  0.20598  0.00835  0.50962  1.0000
  H   H20       1.0  0.29407  0.50844  0.49037  1.0000
  H   H21       1.0  0.56568  0.19334  0.55928  1.0000
  H   H22       1.0  0.93437  0.69335  0.44071  1.0000
  H   H23       1.0  0.43429  0.80663  0.44072  1.0000
  H   H24       1.0  0.06564  0.30663  0.55927  1.0000
  H   H25       1.0  0.50094  0.17973  0.73151  1.0000
  H   H26       1.0  0.99913  0.67979  0.26849  1.0000
  H   H27       1.0  0.49906  0.82032  0.26849  1.0000
  H   H28       1.0  0.00087  0.32023  0.73151  1.0000
  C   C1        1.0  0.68725  0.96458  0.76042  1.0000
  C   C2        1.0  0.81277  0.46461  0.23960  1.0000
  C   C3        1.0  0.31276  0.03549  0.23959  1.0000
  C   C4        1.0  0.18723  0.53541  0.76039  1.0000
  C   C5        1.0  0.81451  0.84986  0.72145  1.0000
  C   C6        1.0  0.68540  0.34988  0.27856  1.0000
  C   C7        1.0  0.18548  0.15016  0.27858  1.0000
  C   C8        1.0  0.31460  0.65012  0.72141  1.0000
  C   C9        1.0  0.85369  0.86007  0.62493  1.0000
  C   C10       1.0  0.64621  0.36004  0.37509  1.0000
  C   C11       1.0  0.14627  0.13992  0.37509  1.0000
  C   C12       1.0  0.35379  0.63996  0.62489  1.0000
  C   C13       1.0  0.76445  0.98373  0.56612  1.0000
  C   C14       1.0  0.73549  0.48370  0.43389  1.0000
  C   C15       1.0  0.23555  0.01625  0.43389  1.0000
  C   C16       1.0  0.26450  0.51629  0.56609  1.0000
  C   C17       1.0  0.63655  0.09719  0.60456  1.0000
  C   C18       1.0  0.86344  0.59720  0.39545  1.0000
  C   C19       1.0  0.36343  0.90282  0.39545  1.0000
  C   C20       1.0  0.13656  0.40279  0.60454  1.0000
  C   C21       1.0  0.59802  0.08873  0.70137  1.0000
  C   C22       1.0  0.90202  0.58877  0.29864  1.0000
  C   C23       1.0  0.40198  0.91131  0.29863  1.0000
  C   C24       1.0  0.09799  0.41125  0.70134  1.0000
  O   O1        1.0  0.81530  0.99394  0.94449  1.0000
  O   O2        1.0  0.68523  0.49368  0.05550  1.0000
  O   O3        1.0  0.18473  0.00608  0.05555  1.0000
  O   O4        1.0  0.31483  0.50640  0.94445  1.0000
  O   O5        1.0  0.56428  0.76802  0.90631  1.0000
  O   O6        1.0  0.93690  0.26847  0.09383  1.0000
  O   O7        1.0  0.43590  0.23201  0.09373  1.0000
  O   O8        1.0  0.06299  0.73155  0.90613  1.0000
  O   O9        1.0  0.49830  0.10002  0.90417  1.0000
  O   O10       1.0  0.00208  0.60046  0.09606  1.0000
  O   O11       1.0  0.50175  0.90001  0.09584  1.0000
  O   O12       1.0  0.99793  0.39959  0.90400  1.0000
  O   O13       1.0  0.84105  0.92664  0.13923  1.0000
  O   O14       1.0  0.65858  0.42661  0.86085  1.0000
  O   O15       1.0  0.15879  0.07330  0.86081  1.0000
  O   O16       1.0  0.34149  0.57336  0.13910  1.0000
