data_image0
_chemical_formula_structural       Ca2Cu2H8C8O16
_chemical_formula_sum              "Ca2 Cu2 H8 C8 O16"
_cell_length_a       6.53285
_cell_length_b       7.37174
_cell_length_c       8.38765
_cell_angle_alpha    90.0002
_cell_angle_beta     90.0003
_cell_angle_gamma    97.5203

_space_group_name_H-M_alt    "P 1"
_space_group_IT_number       1

loop_
  _space_group_symop_operation_xyz
  'x, y, z'

loop_
  _atom_site_type_symbol
  _atom_site_label
  _atom_site_symmetry_multiplicity
  _atom_site_fract_x
  _atom_site_fract_y
  _atom_site_fract_z
  _atom_site_occupancy
  Ca  Ca1       1.0  0.75000  0.00000  0.13736  1.0000
  Ca  Ca2       1.0  0.25000  1.00000  0.86262  1.0000
  Cu  Cu1       1.0  0.75000  0.50000  0.40462  1.0000
  Cu  Cu2       1.0  0.25001  0.50000  0.59538  1.0000
  H   H1        1.0  0.27371  0.15453  0.44643  1.0000
  H   H2        1.0  0.22629  0.84546  0.44643  1.0000
  H   H3        1.0  0.72627  0.84547  0.55357  1.0000
  H   H4        1.0  0.77373  0.15454  0.55357  1.0000
  H   H5        1.0  0.40903  0.42816  0.15480  1.0000
  H   H6        1.0  0.09097  0.57184  0.15480  1.0000
  H   H7        1.0  0.59094  0.57187  0.84521  1.0000
  H   H8        1.0  0.90906  0.42812  0.84520  1.0000
  C   C1        1.0  0.12807  0.19281  0.39780  1.0000
  C   C2        1.0  0.37194  0.80719  0.39780  1.0000
  C   C3        1.0  0.87195  0.80717  0.60218  1.0000
  C   C4        1.0  0.62804  0.19284  0.60218  1.0000
  C   C5        1.0  0.50559  0.31589  0.14378  1.0000
  C   C6        1.0  0.99440  0.68411  0.14378  1.0000
  C   C7        1.0  0.49445  0.68410  0.85624  1.0000
  C   C8        1.0  0.00555  0.31589  0.85623  1.0000
  O   O1        1.0  0.08685  0.35487  0.43057  1.0000
  O   O2        1.0  0.41316  0.64514  0.43058  1.0000
  O   O3        1.0  0.91312  0.64511  0.56939  1.0000
  O   O4        1.0  0.58687  0.35489  0.56939  1.0000
  O   O5        1.0  0.46411  0.19216  0.04084  1.0000
  O   O6        1.0  0.03588  0.80784  0.04084  1.0000
  O   O7        1.0  0.53591  0.80782  0.95916  1.0000
  O   O8        1.0  0.96410  0.19218  0.95915  1.0000
  O   O9        1.0  0.65945  0.31577  0.23812  1.0000
  O   O10       1.0  0.84055  0.68423  0.23812  1.0000
  O   O11       1.0  0.34057  0.68427  0.76192  1.0000
  O   O12       1.0  0.15944  0.31573  0.76192  1.0000
  O   O13       1.0  0.01536  0.07919  0.31540  1.0000
  O   O14       1.0  0.48464  0.92082  0.31540  1.0000
  O   O15       1.0  0.98464  0.92081  0.68460  1.0000
  O   O16       1.0  0.51535  0.07919  0.68460  1.0000
