data_image0
_chemical_formula_structural       Ca4Cu2H12C12O24
_chemical_formula_sum              "Ca4 Cu2 H12 C12 O24"
_cell_length_a       6.37097
_cell_length_b       8.74043
_cell_length_c       12.1196
_cell_angle_alpha    111.145
_cell_angle_beta     100.125
_cell_angle_gamma    90.0091

_space_group_name_H-M_alt    "P 1"
_space_group_IT_number       1

loop_
  _space_group_symop_operation_xyz
  'x, y, z'

loop_
  _atom_site_type_symbol
  _atom_site_label
  _atom_site_symmetry_multiplicity
  _atom_site_fract_x
  _atom_site_fract_y
  _atom_site_fract_z
  _atom_site_occupancy
  Ca  Ca1       1.0  0.43305  0.52444  0.31580  1.0000
  Ca  Ca2       1.0  0.06683  0.20855  0.68419  1.0000
  Ca  Ca3       1.0  0.56696  0.47556  0.68420  1.0000
  Ca  Ca4       1.0  0.93318  0.79145  0.31581  1.0000
  Cu  Cu1       1.0  0.24997  0.09271  0.99992  1.0000
  Cu  Cu2       1.0  0.75003  0.90729  0.00008  1.0000
  H   H1        1.0  0.11745  0.86023  0.75987  1.0000
  H   H2        1.0  0.38279  0.10023  0.24001  1.0000
  H   H3        1.0  0.88255  0.13977  0.24013  1.0000
  H   H4        1.0  0.61721  0.89977  0.75999  1.0000
  H   H5        1.0  0.93045  0.35191  0.03124  1.0000
  H   H6        1.0  0.56958  0.32016  0.96837  1.0000
  H   H7        1.0  0.06955  0.64809  0.96875  1.0000
  H   H8        1.0  0.43041  0.67984  0.03163  1.0000
  H   H9        1.0  0.01569  0.68339  0.56529  1.0000
  H   H10       1.0  0.48419  0.11806  0.43449  1.0000
  H   H11       1.0  0.98431  0.31662  0.43471  1.0000
  H   H12       1.0  0.51581  0.88194  0.56550  1.0000
  C   C1        1.0  0.26058  0.80668  0.79318  1.0000
  C   C2        1.0  0.23939  0.01357  0.20673  1.0000
  C   C3        1.0  0.73942  0.19331  0.20682  1.0000
  C   C4        1.0  0.76061  0.98643  0.79327  1.0000
  C   C5        1.0  0.06219  0.40315  0.10986  1.0000
  C   C6        1.0  0.43781  0.29279  0.88977  1.0000
  C   C7        1.0  0.93781  0.59685  0.89014  1.0000
  C   C8        1.0  0.56218  0.70721  0.11023  1.0000
  C   C9        1.0  0.84226  0.65489  0.52895  1.0000
  C   C10       1.0  0.65758  0.12582  0.47091  1.0000
  C   C11       1.0  0.15774  0.34511  0.47105  1.0000
  C   C12       1.0  0.34241  0.87418  0.52909  1.0000
  O   O1        1.0  0.32296  0.67919  0.72297  1.0000
  O   O2        1.0  0.17699  0.95632  0.27693  1.0000
  O   O3        1.0  0.67705  0.32081  0.27704  1.0000
  O   O4        1.0  0.82300  0.04369  0.72307  1.0000
  O   O5        1.0  0.35352  0.88275  0.90357  1.0000
  O   O6        1.0  0.14623  0.97948  0.09643  1.0000
  O   O7        1.0  0.64649  0.11725  0.09644  1.0000
  O   O8        1.0  0.85377  0.02053  0.90358  1.0000
  O   O9        1.0  0.21699  0.31251  0.12035  1.0000
  O   O10       1.0  0.28306  0.19156  0.87927  1.0000
  O   O11       1.0  0.78301  0.68749  0.87965  1.0000
  O   O12       1.0  0.71693  0.80844  0.12073  1.0000
  O   O13       1.0  0.06013  0.54589  0.18588  1.0000
  O   O14       1.0  0.43975  0.35959  0.81382  1.0000
  O   O15       1.0  0.93987  0.45412  0.81411  1.0000
  O   O16       1.0  0.56025  0.64041  0.18618  1.0000
  O   O17       1.0  0.77061  0.67169  0.42890  1.0000
  O   O18       1.0  0.72913  0.24251  0.57111  1.0000
  O   O19       1.0  0.22939  0.32831  0.57110  1.0000
  O   O20       1.0  0.27087  0.75748  0.42888  1.0000
  O   O21       1.0  0.72893  0.60732  0.58715  1.0000
  O   O22       1.0  0.77099  0.02016  0.41269  1.0000
  O   O23       1.0  0.27107  0.39267  0.41285  1.0000
  O   O24       1.0  0.22901  0.97984  0.58731  1.0000
