data_image0
_chemical_formula_structural       CoH12C12S2N10O10
_chemical_formula_sum              "Co1 H12 C12 S2 N10 O10"
_cell_length_a       6.81988
_cell_length_b       8.60277
_cell_length_c       9.90213
_cell_angle_alpha    64.756
_cell_angle_beta     73.608
_cell_angle_gamma    82.7253

_space_group_name_H-M_alt    "P 1"
_space_group_IT_number       1

loop_
  _space_group_symop_operation_xyz
  'x, y, z'

loop_
  _atom_site_type_symbol
  _atom_site_label
  _atom_site_symmetry_multiplicity
  _atom_site_fract_x
  _atom_site_fract_y
  _atom_site_fract_z
  _atom_site_occupancy
  Co  Co1       1.0  0.49999  1.00000  0.50000  1.0000
  H   H1        1.0  0.21061  0.31103  0.51756  1.0000
  H   H2        1.0  0.78939  0.68897  0.48244  1.0000
  H   H3        1.0  0.41222  0.88250  0.86612  1.0000
  H   H4        1.0  0.58778  0.11750  0.13387  1.0000
  H   H5        1.0  0.17375  0.09039  0.00070  1.0000
  H   H6        1.0  0.82625  0.90961  0.99930  1.0000
  H   H7        1.0  0.14548  0.76390  0.54390  1.0000
  H   H8        1.0  0.85453  0.23610  0.45610  1.0000
  H   H9        1.0  0.60331  0.67285  0.78344  1.0000
  H   H10       1.0  0.39669  0.32716  0.21656  1.0000
  H   H11       1.0  0.34771  0.38790  0.93024  1.0000
  H   H12       1.0  0.65229  0.61210  0.06977  1.0000
  C   C1        1.0  0.23894  0.22256  0.62714  1.0000
  C   C2        1.0  0.76106  0.77744  0.37285  1.0000
  C   C3        1.0  0.33714  0.00323  0.81296  1.0000
  C   C4        1.0  0.66286  0.99677  0.18704  1.0000
  C   C5        1.0  0.21749  0.10111  0.88266  1.0000
  C   C6        1.0  0.78251  0.89889  0.11734  1.0000
  C   C7        1.0  0.23529  0.70418  0.62807  1.0000
  C   C8        1.0  0.76471  0.29582  0.37193  1.0000
  C   C9        1.0  0.46928  0.64850  0.75706  1.0000
  C   C10       1.0  0.53072  0.35151  0.24294  1.0000
  C   C11       1.0  0.34866  0.50660  0.82874  1.0000
  C   C12       1.0  0.65134  0.49340  0.17127  1.0000
  S   S1        1.0  0.01342  0.40803  0.78297  1.0000
  S   S2        1.0  0.98658  0.59197  0.21703  1.0000
  N   N1        1.0  0.34978  0.07970  0.65512  1.0000
  N   N2        1.0  0.65022  0.92030  0.34488  1.0000
  N   N3        1.0  0.15446  0.23985  0.76366  1.0000
  N   N4        1.0  0.84554  0.76014  0.23634  1.0000
  N   N5        1.0  0.20107  0.54278  0.74608  1.0000
  N   N6        1.0  0.79893  0.45722  0.25393  1.0000
  N   N7        1.0  0.39618  0.77024  0.63411  1.0000
  N   N8        1.0  0.60383  0.22976  0.36589  1.0000
  N   N9        1.0  0.80562  0.94043  0.71195  1.0000
  N   N10       1.0  0.19438  0.05957  0.28805  1.0000
  O   O1        1.0  0.91899  0.48587  0.65808  1.0000
  O   O2        1.0  0.08101  0.51414  0.34192  1.0000
  O   O3        1.0  0.90652  0.35078  0.94144  1.0000
  O   O4        1.0  0.09349  0.64921  0.05858  1.0000
  O   O5        1.0  0.78217  0.92652  0.59305  1.0000
  O   O6        1.0  0.21783  0.07348  0.40695  1.0000
  O   O7        1.0  0.81370  0.08605  0.71102  1.0000
  O   O8        1.0  0.18630  0.91395  0.28898  1.0000
  O   O9        1.0  0.81911  0.80378  0.82964  1.0000
  O   O10       1.0  0.18089  0.19623  0.17037  1.0000
