data_image0
_chemical_formula_structural       ZnH12C12S2N10O10
_chemical_formula_sum              "Zn1 H12 C12 S2 N10 O10"
_cell_length_a       6.72843
_cell_length_b       8.83579
_cell_length_c       10.0493
_cell_angle_alpha    64.2007
_cell_angle_beta     76.2478
_cell_angle_gamma    82.7569

_space_group_name_H-M_alt    "P 1"
_space_group_IT_number       1

loop_
  _space_group_symop_operation_xyz
  'x, y, z'

loop_
  _atom_site_type_symbol
  _atom_site_label
  _atom_site_symmetry_multiplicity
  _atom_site_fract_x
  _atom_site_fract_y
  _atom_site_fract_z
  _atom_site_occupancy
  Zn  Zn1       1.0  0.50000  0.00000  0.50000  1.0000
  H   H1        1.0  0.20650  0.30988  0.52967  1.0000
  H   H2        1.0  0.79350  0.69012  0.47033  1.0000
  H   H3        1.0  0.16828  0.08772  0.00667  1.0000
  H   H4        1.0  0.83172  0.91228  0.99333  1.0000
  H   H5        1.0  0.40642  0.88312  0.88042  1.0000
  H   H6        1.0  0.59358  0.11688  0.11958  1.0000
  H   H7        1.0  0.14259  0.74749  0.54548  1.0000
  H   H8        1.0  0.85741  0.25251  0.45451  1.0000
  H   H9        1.0  0.33407  0.38288  0.94419  1.0000
  H   H10       1.0  0.66593  0.61713  0.05581  1.0000
  H   H11       1.0  0.59781  0.65518  0.79983  1.0000
  H   H12       1.0  0.40219  0.34483  0.20016  1.0000
  C   C1        1.0  0.23284  0.22026  0.63958  1.0000
  C   C2        1.0  0.76716  0.77974  0.36042  1.0000
  C   C3        1.0  0.21226  0.09937  0.89145  1.0000
  C   C4        1.0  0.78774  0.90062  0.10855  1.0000
  C   C5        1.0  0.33097  0.00304  0.82597  1.0000
  C   C6        1.0  0.66903  0.99696  0.17403  1.0000
  C   C7        1.0  0.23135  0.68834  0.63327  1.0000
  C   C8        1.0  0.76864  0.31166  0.36673  1.0000
  C   C9        1.0  0.33863  0.49722  0.84130  1.0000
  C   C10       1.0  0.66137  0.50278  0.15870  1.0000
  C   C11       1.0  0.46274  0.63249  0.77042  1.0000
  C   C12       1.0  0.53726  0.36751  0.22958  1.0000
  S   S1        1.0  0.00536  0.40340  0.78376  1.0000
  S   S2        1.0  0.99463  0.59660  0.21625  1.0000
  N   N1        1.0  0.34271  0.07935  0.67074  1.0000
  N   N2        1.0  0.65729  0.92065  0.32926  1.0000
  N   N3        1.0  0.14861  0.23742  0.77143  1.0000
  N   N4        1.0  0.85140  0.76258  0.22857  1.0000
  N   N5        1.0  0.19162  0.53361  0.75323  1.0000
  N   N6        1.0  0.80838  0.46640  0.24677  1.0000
  N   N7        1.0  0.39366  0.74952  0.64280  1.0000
  N   N8        1.0  0.60633  0.25048  0.35720  1.0000
  N   N9        1.0  0.19088  0.06523  0.29012  1.0000
  N   N10       1.0  0.80912  0.93477  0.70988  1.0000
  O   O1        1.0  0.91144  0.47963  0.65592  1.0000
  O   O2        1.0  0.08856  0.52037  0.34408  1.0000
  O   O3        1.0  0.89694  0.34900  0.93604  1.0000
  O   O4        1.0  0.10306  0.65100  0.06396  1.0000
  O   O5        1.0  0.22025  0.07992  0.40637  1.0000
  O   O6        1.0  0.77975  0.92008  0.59363  1.0000
  O   O7        1.0  0.16740  0.19791  0.17480  1.0000
  O   O8        1.0  0.83261  0.80209  0.82520  1.0000
  O   O9        1.0  0.18523  0.92238  0.29328  1.0000
  O   O10       1.0  0.81477  0.07762  0.70672  1.0000
