data_image0
_chemical_formula_structural       Cd2H12C12S2N20O4
_chemical_formula_sum              "Cd2 H12 C12 S2 N20 O4"
_cell_length_a       6.6406
_cell_length_b       9.90496
_cell_length_c       10.9248
_cell_angle_alpha    64.677
_cell_angle_beta     81.2986
_cell_angle_gamma    89.162

_space_group_name_H-M_alt    "P 1"
_space_group_IT_number       1

loop_
  _space_group_symop_operation_xyz
  'x, y, z'

loop_
  _atom_site_type_symbol
  _atom_site_label
  _atom_site_symmetry_multiplicity
  _atom_site_fract_x
  _atom_site_fract_y
  _atom_site_fract_z
  _atom_site_occupancy
  Cd  Cd1       1.0  0.76651  0.48902  0.42733  1.0000
  Cd  Cd2       1.0  0.23349  0.51098  0.57267  1.0000
  H   H1        1.0  0.65572  0.53777  0.10902  1.0000
  H   H2        1.0  0.34428  0.46223  0.89098  1.0000
  H   H3        1.0  0.78644  0.87672  0.22713  1.0000
  H   H4        1.0  0.21357  0.12328  0.77287  1.0000
  H   H5        1.0  0.72783  0.01336  0.95507  1.0000
  H   H6        1.0  0.27218  0.98664  0.04493  1.0000
  H   H7        1.0  0.80111  0.53853  0.80210  1.0000
  H   H8        1.0  0.19889  0.46147  0.19790  1.0000
  H   H9        1.0  0.98803  0.99667  0.67043  1.0000
  H   H10       1.0  0.01197  0.00333  0.32958  1.0000
  H   H11       1.0  0.28510  0.86193  0.56454  1.0000
  H   H12       1.0  0.71490  0.13807  0.43546  1.0000
  C   C1        1.0  0.68816  0.64599  0.10651  1.0000
  C   C2        1.0  0.31184  0.35401  0.89349  1.0000
  C   C3        1.0  0.75473  0.82676  0.16064  1.0000
  C   C4        1.0  0.24528  0.17324  0.83936  1.0000
  C   C5        1.0  0.72600  0.89624  0.02698  1.0000
  C   C6        1.0  0.27400  0.10376  0.97302  1.0000
  C   C7        1.0  0.89709  0.64144  0.75230  1.0000
  C   C8        1.0  0.10291  0.35856  0.24770  1.0000
  C   C9        1.0  0.99859  0.88213  0.68412  1.0000
  C   C10       1.0  0.00141  0.11787  0.31588  1.0000
  C   C11       1.0  0.14198  0.81286  0.63141  1.0000
  C   C12       1.0  0.85802  0.18714  0.36859  1.0000
  S   S1        1.0  0.62004  0.79963  0.84266  1.0000
  S   S2        1.0  0.37996  0.20035  0.15734  1.0000
  N   N1        1.0  0.73198  0.67268  0.20783  1.0000
  N   N2        1.0  0.26802  0.32732  0.79217  1.0000
  N   N3        1.0  0.68377  0.77978  0.99293  1.0000
  N   N4        1.0  0.31623  0.22022  0.00707  1.0000
  N   N5        1.0  0.84273  0.77252  0.76107  1.0000
  N   N6        1.0  0.15727  0.22749  0.23893  1.0000
  N   N7        1.0  0.07713  0.66441  0.67433  1.0000
  N   N8        1.0  0.92286  0.33559  0.32567  1.0000
  N   N9        1.0  0.56336  0.61850  0.53393  1.0000
  N   N10       1.0  0.43663  0.38150  0.46607  1.0000
  N   N11       1.0  0.61780  0.74410  0.51071  1.0000
  N   N12       1.0  0.38220  0.25590  0.48929  1.0000
  N   N13       1.0  0.67280  0.86427  0.48981  1.0000
  N   N14       1.0  0.32720  0.13572  0.51019  1.0000
  N   N15       1.0  0.91771  0.35031  0.61980  1.0000
  N   N16       1.0  0.08229  0.64969  0.38020  1.0000
  N   N17       1.0  0.82971  0.30758  0.73594  1.0000
  N   N18       1.0  0.17029  0.69242  0.26406  1.0000
  N   N19       1.0  0.75178  0.26505  0.85031  1.0000
  N   N20       1.0  0.24822  0.73495  0.14969  1.0000
  O   O1        1.0  0.57644  0.95222  0.77152  1.0000
  O   O2        1.0  0.42356  0.04778  0.22848  1.0000
  O   O3        1.0  0.48701  0.67402  0.87199  1.0000
  O   O4        1.0  0.51300  0.32598  0.12800  1.0000
