data_image0
_chemical_formula_structural       Zn2H12C16N24
_chemical_formula_sum              "Zn2 H12 C16 N24"
_cell_length_a       8.61573
_cell_length_b       8.61546
_cell_length_c       10.1455
_cell_angle_alpha    105.787
_cell_angle_beta     105.713
_cell_angle_gamma    111.142

_space_group_name_H-M_alt    "P 1"
_space_group_IT_number       1

loop_
  _space_group_symop_operation_xyz
  'x, y, z'

loop_
  _atom_site_type_symbol
  _atom_site_label
  _atom_site_symmetry_multiplicity
  _atom_site_fract_x
  _atom_site_fract_y
  _atom_site_fract_z
  _atom_site_occupancy
  Zn  Zn1       1.0  0.88596  0.13596  0.25001  1.0000
  Zn  Zn2       1.0  0.11404  0.86404  0.74999  1.0000
  H   H1        1.0  0.79511  0.07183  0.89319  1.0000
  H   H2        1.0  0.17844  0.40162  0.60681  1.0000
  H   H3        1.0  0.20489  0.92817  0.10681  1.0000
  H   H4        1.0  0.82156  0.59838  0.39319  1.0000
  H   H5        1.0  0.57388  0.51102  0.81347  1.0000
  H   H6        1.0  0.69742  0.26047  0.68643  1.0000
  H   H7        1.0  0.42612  0.48898  0.18653  1.0000
  H   H8        1.0  0.30258  0.73952  0.31356  1.0000
  H   H9        1.0  0.95369  0.78950  0.27236  1.0000
  H   H10       1.0  0.51726  0.18147  0.22759  1.0000
  H   H11       1.0  0.04631  0.21050  0.72763  1.0000
  H   H12       1.0  0.48274  0.81853  0.77241  1.0000
  C   C1        1.0  0.78750  0.44028  0.03737  1.0000
  C   C2        1.0  0.40288  0.25016  0.46257  1.0000
  C   C3        1.0  0.21250  0.55972  0.96263  1.0000
  C   C4        1.0  0.59712  0.74983  0.53743  1.0000
  C   C5        1.0  0.79915  0.19597  0.96195  1.0000
  C   C6        1.0  0.23390  0.33698  0.53808  1.0000
  C   C7        1.0  0.20085  0.80403  0.03805  1.0000
  C   C8        1.0  0.76610  0.66302  0.46192  1.0000
  C   C9        1.0  0.65867  0.61705  0.92811  1.0000
  C   C10       1.0  0.68888  0.23063  0.57184  1.0000
  C   C11       1.0  0.34133  0.38296  0.07189  1.0000
  C   C12       1.0  0.31111  0.76937  0.42816  1.0000
  C   C13       1.0  0.85367  0.75937  0.16427  1.0000
  C   C14       1.0  0.59517  0.18956  0.33570  1.0000
  C   C15       1.0  0.14633  0.24064  0.83573  1.0000
  C   C16       1.0  0.40483  0.81043  0.66430  1.0000
  N   N1        1.0  0.83897  0.24929  0.10987  1.0000
  N   N2        1.0  0.13933  0.22895  0.39014  1.0000
  N   N3        1.0  0.16103  0.75071  0.89013  1.0000
  N   N4        1.0  0.86067  0.77105  0.60986  1.0000
  N   N5        1.0  0.83069  0.40950  0.16042  1.0000
  N   N6        1.0  0.24903  0.17026  0.33954  1.0000
  N   N7        1.0  0.16931  0.59050  0.83958  1.0000
  N   N8        1.0  0.75097  0.82974  0.66046  1.0000
  N   N9        1.0  0.76544  0.31446  0.91078  1.0000
  N   N10       1.0  0.40363  0.35463  0.58917  1.0000
  N   N11       1.0  0.23456  0.68554  0.08922  1.0000
  N   N12       1.0  0.59637  0.64537  0.41083  1.0000
  N   N13       1.0  0.79682  0.87071  0.12614  1.0000
  N   N14       1.0  0.74467  0.17089  0.37389  1.0000
  N   N15       1.0  0.20318  0.12929  0.87386  1.0000
  N   N16       1.0  0.25533  0.82911  0.62611  1.0000
  N   N17       1.0  0.67377  0.78217  0.97727  1.0000
  N   N18       1.0  0.80495  0.19667  0.52276  1.0000
  N   N19       1.0  0.32623  0.21783  0.02273  1.0000
  N   N20       1.0  0.19505  0.80333  0.47724  1.0000
  N   N21       1.0  0.76845  0.59701  0.04217  1.0000
  N   N22       1.0  0.55486  0.22641  0.45777  1.0000
  N   N23       1.0  0.23155  0.40299  0.95783  1.0000
  N   N24       1.0  0.44514  0.77359  0.54223  1.0000
