data_image0
_chemical_formula_structural       Cd4H10C12S2N10O10
_chemical_formula_sum              "Cd4 H10 C12 S2 N10 O10"
_cell_length_a       6.96176
_cell_length_b       7.15277
_cell_length_c       11.4839
_cell_angle_alpha    82.3149
_cell_angle_beta     86.5748
_cell_angle_gamma    86.3025

_space_group_name_H-M_alt    "P 1"
_space_group_IT_number       1

loop_
  _space_group_symop_operation_xyz
  'x, y, z'

loop_
  _atom_site_type_symbol
  _atom_site_label
  _atom_site_symmetry_multiplicity
  _atom_site_fract_x
  _atom_site_fract_y
  _atom_site_fract_z
  _atom_site_occupancy
  Cd  Cd1       1.0  0.20567  0.21179  0.24846  1.0000
  Cd  Cd2       1.0  0.79433  0.78821  0.75154  1.0000
  Cd  Cd3       1.0  0.50000  0.50000  1.00000  1.0000
  Cd  Cd4       1.0  0.50000  0.00000  1.00000  1.0000
  H   H1        1.0  0.91734  0.19612  0.48565  1.0000
  H   H2        1.0  0.08266  0.80387  0.51435  1.0000
  H   H3        1.0  0.50300  0.25989  0.43299  1.0000
  H   H4        1.0  0.49700  0.74012  0.56701  1.0000
  H   H5        1.0  0.22254  0.38559  0.76205  1.0000
  H   H6        1.0  0.77745  0.61441  0.23795  1.0000
  H   H7        1.0  0.52313  0.36826  0.63081  1.0000
  H   H8        1.0  0.47687  0.63175  0.36919  1.0000
  H   H9        1.0  0.19820  0.26480  0.00360  1.0000
  H   H10       1.0  0.80180  0.73520  0.99640  1.0000
  C   C1        1.0  0.04858  0.23210  0.52286  1.0000
  C   C2        1.0  0.95142  0.76790  0.47715  1.0000
  C   C3        1.0  0.37693  0.27054  0.49329  1.0000
  C   C4        1.0  0.62307  0.72947  0.50671  1.0000
  C   C5        1.0  0.04816  0.28497  0.63578  1.0000
  C   C6        1.0  0.95184  0.71503  0.36421  1.0000
  C   C7        1.0  0.87620  0.28258  0.71592  1.0000
  C   C8        1.0  0.12380  0.71742  0.28408  1.0000
  C   C9        1.0  0.22013  0.33839  0.67577  1.0000
  C   C10       1.0  0.77987  0.66162  0.32423  1.0000
  C   C11       1.0  0.38638  0.32913  0.60320  1.0000
  C   C12       1.0  0.61362  0.67088  0.39680  1.0000
  S   S1        1.0  0.73262  0.20030  0.19346  1.0000
  S   S2        1.0  0.26738  0.79971  0.80653  1.0000
  N   N1        1.0  0.21000  0.22682  0.45263  1.0000
  N   N2        1.0  0.79000  0.77318  0.54737  1.0000
  N   N3        1.0  0.77905  0.12798  0.75697  1.0000
  N   N4        1.0  0.22095  0.87202  0.24303  1.0000
  N   N5        1.0  0.80461  0.43170  0.76921  1.0000
  N   N6        1.0  0.19539  0.56830  0.23079  1.0000
  N   N7        1.0  0.66291  0.36432  0.84342  1.0000
  N   N8        1.0  0.33709  0.63568  0.15658  1.0000
  N   N9        1.0  0.64781  0.18455  0.83641  1.0000
  N   N10       1.0  0.35219  0.81545  0.16359  1.0000
  O   O1        1.0  0.30677  0.24763  0.05457  1.0000
  O   O2        1.0  0.69323  0.75237  0.94542  1.0000
  O   O3        1.0  0.88551  0.17771  0.28097  1.0000
  O   O4        1.0  0.11449  0.82229  0.71902  1.0000
  O   O5        1.0  0.54341  0.19643  0.26056  1.0000
  O   O6        1.0  0.45660  0.80358  0.73944  1.0000
  O   O7        1.0  0.75558  0.04444  0.11864  1.0000
  O   O8        1.0  0.24442  0.95556  0.88136  1.0000
  O   O9        1.0  0.75166  0.38642  0.11738  1.0000
  O   O10       1.0  0.24834  0.61358  0.88261  1.0000
