data_image0
_chemical_formula_structural       Cd4H14C12S2N10O12
_chemical_formula_sum              "Cd4 H14 C12 S2 N10 O12"
_cell_length_a       7.02273
_cell_length_b       7.62313
_cell_length_c       11.4755
_cell_angle_alpha    102.359
_cell_angle_beta     90.0002
_cell_angle_gamma    89.9996

_space_group_name_H-M_alt    "P 1"
_space_group_IT_number       1

loop_
  _space_group_symop_operation_xyz
  'x, y, z'

loop_
  _atom_site_type_symbol
  _atom_site_label
  _atom_site_symmetry_multiplicity
  _atom_site_fract_x
  _atom_site_fract_y
  _atom_site_fract_z
  _atom_site_occupancy
  Cd  Cd1       1.0  0.75000  0.05603  0.83617  1.0000
  Cd  Cd2       1.0  0.25000  0.94397  0.16384  1.0000
  Cd  Cd3       1.0  0.50000  0.50000  1.00000  1.0000
  Cd  Cd4       1.0  0.00000  0.50000  1.00000  1.0000
  H   H1        1.0  0.75000  0.39608  0.81906  1.0000
  H   H2        1.0  0.25000  0.60392  0.18094  1.0000
  H   H3        1.0  0.86740  0.70193  0.73389  1.0000
  H   H4        1.0  0.36739  0.29807  0.26611  1.0000
  H   H5        1.0  0.13260  0.29807  0.26611  1.0000
  H   H6        1.0  0.63261  0.70193  0.73389  1.0000
  H   H7        1.0  0.04386  0.16496  0.64050  1.0000
  H   H8        1.0  0.54387  0.83504  0.35950  1.0000
  H   H9        1.0  0.95614  0.83506  0.35951  1.0000
  H   H10       1.0  0.45613  0.16494  0.64049  1.0000
  H   H11       1.0  0.05811  0.27296  0.44909  1.0000
  H   H12       1.0  0.55812  0.72705  0.55091  1.0000
  H   H13       1.0  0.94190  0.72706  0.55092  1.0000
  H   H14       1.0  0.44189  0.27294  0.44909  1.0000
  C   C1        1.0  0.91459  0.19152  0.59443  1.0000
  C   C2        1.0  0.41460  0.80848  0.40557  1.0000
  C   C3        1.0  0.08541  0.80848  0.40558  1.0000
  C   C4        1.0  0.58540  0.19151  0.59443  1.0000
  C   C5        1.0  0.92124  0.25326  0.48900  1.0000
  C   C6        1.0  0.42127  0.74674  0.51099  1.0000
  C   C7        1.0  0.07875  0.74675  0.51100  1.0000
  C   C8        1.0  0.57872  0.25325  0.48900  1.0000
  C   C9        1.0  0.75000  0.28543  0.43407  1.0000
  C   C10       1.0  0.25001  0.71456  0.56594  1.0000
  C   C11       1.0  0.74999  0.35094  0.32342  1.0000
  C   C12       1.0  0.25000  0.64906  0.67658  1.0000
  S   S1        1.0  0.75000  0.91186  0.10327  1.0000
  S   S2        1.0  0.25000  0.08814  0.89673  1.0000
  N   N1        1.0  0.74999  0.16053  0.64690  1.0000
  N   N2        1.0  0.25001  0.83947  0.35310  1.0000
  N   N3        1.0  0.65584  0.44343  0.17060  1.0000
  N   N4        1.0  0.15584  0.55657  0.82940  1.0000
  N   N5        1.0  0.34416  0.55656  0.82940  1.0000
  N   N6        1.0  0.84415  0.44344  0.17060  1.0000
  N   N7        1.0  0.59246  0.38674  0.26503  1.0000
  N   N8        1.0  0.09247  0.61326  0.73497  1.0000
  N   N9        1.0  0.40754  0.61325  0.73497  1.0000
  N   N10       1.0  0.90753  0.38675  0.26503  1.0000
  O   O1        1.0  0.42063  0.07328  0.81871  1.0000
  O   O2        1.0  0.92063  0.92672  0.18129  1.0000
  O   O3        1.0  0.57937  0.92672  0.18129  1.0000
  O   O4        1.0  0.07938  0.07327  0.81871  1.0000
  O   O5        1.0  0.75000  0.36385  0.89672  1.0000
  O   O6        1.0  0.25000  0.63615  0.10328  1.0000
  O   O7        1.0  0.75000  0.77252  0.72444  1.0000
  O   O8        1.0  0.25000  0.22748  0.27556  1.0000
  O   O9        1.0  0.75000  0.05627  0.03448  1.0000
  O   O10       1.0  0.25002  0.94373  0.96552  1.0000
  O   O11       1.0  0.25000  0.26887  0.98301  1.0000
  O   O12       1.0  0.75000  0.73112  0.01699  1.0000
