data_image0
_chemical_formula_structural       Sm4H8C28O24
_chemical_formula_sum              "Sm4 H8 C28 O24"
_cell_length_a       7.28545
_cell_length_b       8.79525
_cell_length_c       9.78532
_cell_angle_alpha    90.0001
_cell_angle_beta     90.0001
_cell_angle_gamma    89.9996

_space_group_name_H-M_alt    "P 1"
_space_group_IT_number       1

loop_
  _space_group_symop_operation_xyz
  'x, y, z'

loop_
  _atom_site_type_symbol
  _atom_site_label
  _atom_site_symmetry_multiplicity
  _atom_site_fract_x
  _atom_site_fract_y
  _atom_site_fract_z
  _atom_site_occupancy
  Sm  Sm1       1.0  0.64775  0.17717  0.75000  1.0000
  Sm  Sm2       1.0  0.85225  0.67718  0.25000  1.0000
  Sm  Sm3       1.0  0.14774  0.32283  0.75000  1.0000
  Sm  Sm4       1.0  0.35225  0.82283  0.25000  1.0000
  H   H1        1.0  0.53794  0.59325  0.97135  1.0000
  H   H2        1.0  0.96204  0.09325  0.02863  1.0000
  H   H3        1.0  0.03795  0.90674  0.52864  1.0000
  H   H4        1.0  0.46206  0.40675  0.47138  1.0000
  H   H5        1.0  0.46205  0.40675  0.02863  1.0000
  H   H6        1.0  0.03795  0.90674  0.97137  1.0000
  H   H7        1.0  0.96205  0.09325  0.47137  1.0000
  H   H8        1.0  0.53793  0.59326  0.52863  1.0000
  C   C1        1.0  0.64270  0.89178  0.98631  1.0000
  C   C2        1.0  0.85730  0.39179  0.01369  1.0000
  C   C3        1.0  0.14270  0.60820  0.51368  1.0000
  C   C4        1.0  0.35731  0.10821  0.48632  1.0000
  C   C5        1.0  0.35731  0.10821  0.01368  1.0000
  C   C6        1.0  0.14270  0.60821  0.98631  1.0000
  C   C7        1.0  0.85730  0.39179  0.48631  1.0000
  C   C8        1.0  0.64270  0.89178  0.51368  1.0000
  C   C9        1.0  0.58628  0.79863  0.87156  1.0000
  C   C10       1.0  0.91373  0.29863  0.12844  1.0000
  C   C11       1.0  0.08626  0.70137  0.62842  1.0000
  C   C12       1.0  0.41374  0.20137  0.37158  1.0000
  C   C13       1.0  0.41374  0.20137  0.12843  1.0000
  C   C14       1.0  0.08627  0.70137  0.87158  1.0000
  C   C15       1.0  0.91373  0.29863  0.37156  1.0000
  C   C16       1.0  0.58628  0.79863  0.62844  1.0000
  C   C17       1.0  0.54146  0.64769  0.87235  1.0000
  C   C18       1.0  0.95854  0.14769  0.12764  1.0000
  C   C19       1.0  0.04144  0.85231  0.62764  1.0000
  C   C20       1.0  0.45856  0.35231  0.37236  1.0000
  C   C21       1.0  0.45856  0.35231  0.12765  1.0000
  C   C22       1.0  0.04145  0.85231  0.87236  1.0000
  C   C23       1.0  0.95855  0.14769  0.37236  1.0000
  C   C24       1.0  0.54145  0.64770  0.62764  1.0000
  C   C25       1.0  0.51472  0.56428  0.74999  1.0000
  C   C26       1.0  0.98528  0.06427  0.25000  1.0000
  C   C27       1.0  0.01471  0.93573  0.75000  1.0000
  C   C28       1.0  0.48529  0.43573  0.25001  1.0000
  O   O1        1.0  0.68540  0.02940  0.96024  1.0000
  O   O2        1.0  0.81459  0.52941  0.03975  1.0000
  O   O3        1.0  0.18541  0.47059  0.53975  1.0000
  O   O4        1.0  0.31459  0.97060  0.46025  1.0000
  O   O5        1.0  0.31458  0.97060  0.03975  1.0000
  O   O6        1.0  0.18541  0.47059  0.96025  1.0000
  O   O7        1.0  0.81460  0.52941  0.46025  1.0000
  O   O8        1.0  0.68540  0.02940  0.53975  1.0000
  O   O9        1.0  0.64890  0.83344  0.10894  1.0000
  O   O10       1.0  0.85109  0.33343  0.89107  1.0000
  O   O11       1.0  0.14893  0.66656  0.39108  1.0000
  O   O12       1.0  0.35108  0.16657  0.60892  1.0000
  O   O13       1.0  0.35108  0.16658  0.89108  1.0000
  O   O14       1.0  0.14893  0.66656  0.10892  1.0000
  O   O15       1.0  0.85109  0.33343  0.60893  1.0000
  O   O16       1.0  0.64891  0.83344  0.39106  1.0000
  O   O17       1.0  0.47470  0.41763  0.75000  1.0000
  O   O18       1.0  0.02530  0.91763  0.25000  1.0000
  O   O19       1.0  0.97470  0.08238  0.75000  1.0000
  O   O20       1.0  0.52529  0.58236  0.25000  1.0000
  O   O21       1.0  0.59502  0.87910  0.75000  1.0000
  O   O22       1.0  0.90499  0.37909  0.25000  1.0000
  O   O23       1.0  0.09504  0.62091  0.75000  1.0000
  O   O24       1.0  0.40496  0.12092  0.25000  1.0000
