data_image0
_chemical_formula_structural       Pr4H8C28O24
_chemical_formula_sum              "Pr4 H8 C28 O24"
_cell_length_a       7.40637
_cell_length_b       8.91112
_cell_length_c       9.86106
_cell_angle_alpha    90
_cell_angle_beta     90
_cell_angle_gamma    89.8542

_space_group_name_H-M_alt    "P 1"
_space_group_IT_number       1

loop_
  _space_group_symop_operation_xyz
  'x, y, z'

loop_
  _atom_site_type_symbol
  _atom_site_label
  _atom_site_symmetry_multiplicity
  _atom_site_fract_x
  _atom_site_fract_y
  _atom_site_fract_z
  _atom_site_occupancy
  Pr  Pr1       1.0  0.85119  0.17577  0.25000  1.0000
  Pr  Pr2       1.0  0.64914  0.67573  0.75000  1.0000
  Pr  Pr3       1.0  0.35085  0.32436  0.25000  1.0000
  Pr  Pr4       1.0  0.14882  0.82416  0.75000  1.0000
  H   H1        1.0  0.95781  0.59282  0.46965  1.0000
  H   H2        1.0  0.53971  0.09368  0.53016  1.0000
  H   H3        1.0  0.46055  0.90645  0.03015  1.0000
  H   H4        1.0  0.04206  0.40698  0.96966  1.0000
  H   H5        1.0  0.04206  0.40698  0.53034  1.0000
  H   H6        1.0  0.46055  0.90645  0.46985  1.0000
  H   H7        1.0  0.53971  0.09368  0.96984  1.0000
  H   H8        1.0  0.95781  0.59282  0.03035  1.0000
  C   C1        1.0  0.85904  0.88916  0.48530  1.0000
  C   C2        1.0  0.64118  0.38888  0.51452  1.0000
  C   C3        1.0  0.35870  0.61126  0.01451  1.0000
  C   C4        1.0  0.14111  0.11075  0.98528  1.0000
  C   C5        1.0  0.14111  0.11075  0.51472  1.0000
  C   C6        1.0  0.35871  0.61126  0.48548  1.0000
  C   C7        1.0  0.64118  0.38888  0.98549  1.0000
  C   C8        1.0  0.85904  0.88916  0.01470  1.0000
  C   C9        1.0  0.91379  0.79695  0.37083  1.0000
  C   C10       1.0  0.58766  0.29682  0.62912  1.0000
  C   C11       1.0  0.41216  0.70337  0.12912  1.0000
  C   C12       1.0  0.08632  0.20289  0.87087  1.0000
  C   C13       1.0  0.08633  0.20289  0.62912  1.0000
  C   C14       1.0  0.41217  0.70337  0.37087  1.0000
  C   C15       1.0  0.58767  0.29682  0.87088  1.0000
  C   C16       1.0  0.91379  0.79695  0.12916  1.0000
  C   C17       1.0  0.95601  0.64742  0.37161  1.0000
  C   C18       1.0  0.54374  0.14782  0.62837  1.0000
  C   C19       1.0  0.45629  0.85233  0.12837  1.0000
  C   C20       1.0  0.04391  0.35239  0.87160  1.0000
  C   C21       1.0  0.04392  0.35239  0.62840  1.0000
  C   C22       1.0  0.45629  0.85233  0.37163  1.0000
  C   C23       1.0  0.54374  0.14782  0.87163  1.0000
  C   C24       1.0  0.95601  0.64742  0.12839  1.0000
  C   C25       1.0  0.98223  0.56491  0.25000  1.0000
  C   C26       1.0  0.51770  0.06535  0.75000  1.0000
  C   C27       1.0  0.48235  0.93479  0.25000  1.0000
  C   C28       1.0  0.01765  0.43487  0.75000  1.0000
  O   O1        1.0  0.81501  0.02479  0.46072  1.0000
  O   O2        1.0  0.68527  0.52439  0.53896  1.0000
  O   O3        1.0  0.31456  0.47579  0.03900  1.0000
  O   O4        1.0  0.18513  0.97508  0.96072  1.0000
  O   O5        1.0  0.18513  0.97508  0.53928  1.0000
  O   O6        1.0  0.31456  0.47579  0.46100  1.0000
  O   O7        1.0  0.68527  0.52439  0.96104  1.0000
  O   O8        1.0  0.81501  0.02479  0.03928  1.0000
  O   O9        1.0  0.85499  0.83069  0.60659  1.0000
  O   O10       1.0  0.64421  0.33050  0.39311  1.0000
  O   O11       1.0  0.35576  0.66959  0.89309  1.0000
  O   O12       1.0  0.14519  0.16921  0.10658  1.0000
  O   O13       1.0  0.14519  0.16921  0.39342  1.0000
  O   O14       1.0  0.35577  0.66959  0.60691  1.0000
  O   O15       1.0  0.64421  0.33050  0.10690  1.0000
  O   O16       1.0  0.85499  0.83069  0.89342  1.0000
  O   O17       1.0  0.02142  0.42032  0.25000  1.0000
  O   O18       1.0  0.47790  0.92099  0.75000  1.0000
  O   O19       1.0  0.52224  0.07913  0.25000  1.0000
  O   O20       1.0  0.97841  0.57949  0.75000  1.0000
  O   O21       1.0  0.90550  0.87635  0.25000  1.0000
  O   O22       1.0  0.59829  0.37593  0.75000  1.0000
  O   O23       1.0  0.40127  0.62431  0.25000  1.0000
  O   O24       1.0  0.09465  0.12349  0.75000  1.0000
