data_image0
_chemical_formula_structural       Nd4H8C28O24
_chemical_formula_sum              "Nd4 H8 C28 O24"
_cell_length_a       7.35632
_cell_length_b       8.86964
_cell_length_c       9.83301
_cell_angle_alpha    90
_cell_angle_beta     90.0001
_cell_angle_gamma    90.1265

_space_group_name_H-M_alt    "P 1"
_space_group_IT_number       1

loop_
  _space_group_symop_operation_xyz
  'x, y, z'

loop_
  _atom_site_type_symbol
  _atom_site_label
  _atom_site_symmetry_multiplicity
  _atom_site_fract_x
  _atom_site_fract_y
  _atom_site_fract_z
  _atom_site_occupancy
  Nd  Nd1       1.0  0.85143  0.67618  0.75000  1.0000
  Nd  Nd2       1.0  0.64807  0.17619  0.25000  1.0000
  Nd  Nd3       1.0  0.14863  0.32387  0.25000  1.0000
  Nd  Nd4       1.0  0.35190  0.82373  0.75000  1.0000
  H   H1        1.0  0.96087  0.09338  0.52955  1.0000
  H   H2        1.0  0.54130  0.59273  0.47033  1.0000
  H   H3        1.0  0.03903  0.90670  0.02956  1.0000
  H   H4        1.0  0.45883  0.40713  0.97033  1.0000
  H   H5        1.0  0.03903  0.90670  0.47044  1.0000
  H   H6        1.0  0.45883  0.40713  0.52966  1.0000
  H   H7        1.0  0.96087  0.09338  0.97046  1.0000
  H   H8        1.0  0.54130  0.59273  0.02967  1.0000
  C   C1        1.0  0.85866  0.38978  0.51426  1.0000
  C   C2        1.0  0.64145  0.89004  0.48558  1.0000
  C   C3        1.0  0.14141  0.61033  0.01424  1.0000
  C   C4        1.0  0.35847  0.10990  0.98557  1.0000
  C   C5        1.0  0.14142  0.61033  0.48576  1.0000
  C   C6        1.0  0.35847  0.10990  0.51442  1.0000
  C   C7        1.0  0.85866  0.38978  0.98575  1.0000
  C   C8        1.0  0.64145  0.89004  0.01442  1.0000
  C   C9        1.0  0.91346  0.29738  0.62887  1.0000
  C   C10       1.0  0.58556  0.79754  0.37112  1.0000
  C   C11       1.0  0.08664  0.70272  0.12888  1.0000
  C   C12       1.0  0.41435  0.20237  0.87112  1.0000
  C   C13       1.0  0.08664  0.70273  0.37112  1.0000
  C   C14       1.0  0.41435  0.20237  0.62888  1.0000
  C   C15       1.0  0.91346  0.29738  0.87113  1.0000
  C   C16       1.0  0.58556  0.79755  0.12888  1.0000
  C   C17       1.0  0.95735  0.14762  0.62808  1.0000
  C   C18       1.0  0.54303  0.64734  0.37192  1.0000
  C   C19       1.0  0.04267  0.85246  0.12808  1.0000
  C   C20       1.0  0.45700  0.35253  0.87193  1.0000
  C   C21       1.0  0.04267  0.85246  0.37192  1.0000
  C   C22       1.0  0.45700  0.35253  0.62807  1.0000
  C   C23       1.0  0.95736  0.14763  0.87192  1.0000
  C   C24       1.0  0.54303  0.64734  0.12808  1.0000
  C   C25       1.0  0.98361  0.06485  0.75000  1.0000
  C   C26       1.0  0.51684  0.56450  0.25000  1.0000
  C   C27       1.0  0.01638  0.93525  0.25000  1.0000
  C   C28       1.0  0.48322  0.43539  0.75000  1.0000
  O   O1        1.0  0.90359  0.37698  0.75000  1.0000
  O   O2        1.0  0.59353  0.87737  0.25000  1.0000
  O   O3        1.0  0.09658  0.62312  0.25000  1.0000
  O   O4        1.0  0.40630  0.12254  0.75000  1.0000
  O   O5        1.0  0.81466  0.52594  0.53931  1.0000
  O   O6        1.0  0.68512  0.02636  0.46035  1.0000
  O   O7        1.0  0.18537  0.47417  0.03932  1.0000
  O   O8        1.0  0.31483  0.97357  0.96034  1.0000
  O   O9        1.0  0.18537  0.47417  0.46068  1.0000
  O   O10       1.0  0.31483  0.97357  0.53966  1.0000
  O   O11       1.0  0.81466  0.52594  0.96069  1.0000
  O   O12       1.0  0.68512  0.02637  0.03965  1.0000
  O   O13       1.0  0.85440  0.33152  0.39234  1.0000
  O   O14       1.0  0.64641  0.83168  0.60740  1.0000
  O   O15       1.0  0.14557  0.66855  0.89232  1.0000
  O   O16       1.0  0.35349  0.16827  0.10741  1.0000
  O   O17       1.0  0.14557  0.66855  0.60768  1.0000
  O   O18       1.0  0.35349  0.16827  0.39259  1.0000
  O   O19       1.0  0.85440  0.33152  0.10766  1.0000
  O   O20       1.0  0.64641  0.83169  0.89260  1.0000
  O   O21       1.0  0.02317  0.91965  0.75000  1.0000
  O   O22       1.0  0.47729  0.41916  0.25000  1.0000
  O   O23       1.0  0.97675  0.08044  0.25000  1.0000
  O   O24       1.0  0.52281  0.58073  0.75000  1.0000
