data_image0
_chemical_formula_structural       Cu5H26C16O26
_chemical_formula_sum              "Cu5 H26 C16 O26"
_cell_length_a       8.62439
_cell_length_b       8.91011
_cell_length_c       12.6435
_cell_angle_alpha    106.956
_cell_angle_beta     90.5732
_cell_angle_gamma    109.488

_space_group_name_H-M_alt    "P 1"
_space_group_IT_number       1

loop_
  _space_group_symop_operation_xyz
  'x, y, z'

loop_
  _atom_site_type_symbol
  _atom_site_label
  _atom_site_symmetry_multiplicity
  _atom_site_fract_x
  _atom_site_fract_y
  _atom_site_fract_z
  _atom_site_occupancy
  Cu  Cu1       1.0  0.00011  0.00024  0.99989  1.0000
  Cu  Cu2       1.0  0.00553  0.05537  0.32683  1.0000
  Cu  Cu3       1.0  0.99496  0.94459  0.67323  1.0000
  Cu  Cu4       1.0  0.64581  0.06694  0.33980  1.0000
  Cu  Cu5       1.0  0.35340  0.93265  0.65980  1.0000
  H   H1        1.0  0.87543  0.52450  0.24325  1.0000
  H   H2        1.0  0.12432  0.47555  0.75680  1.0000
  H   H3        1.0  0.11205  0.57868  0.13994  1.0000
  H   H4        1.0  0.88818  0.42190  0.86049  1.0000
  H   H5        1.0  0.31647  0.55366  0.32810  1.0000
  H   H6        1.0  0.68339  0.44609  0.67211  1.0000
  H   H7        1.0  0.11296  0.60282  0.44579  1.0000
  H   H8        1.0  0.88642  0.39673  0.55432  1.0000
  H   H9        1.0  0.23702  0.07166  0.88314  1.0000
  H   H10       1.0  0.76378  0.92925  0.11717  1.0000
  H   H11       1.0  0.28468  0.18204  0.01556  1.0000
  H   H12       1.0  0.71543  0.81864  0.98478  1.0000
  H   H13       1.0  0.22969  0.95939  0.18593  1.0000
  H   H14       1.0  0.76994  0.04045  0.81355  1.0000
  H   H15       1.0  0.23998  0.13936  0.18181  1.0000
  H   H16       1.0  0.76019  0.86062  0.81787  1.0000
  H   H17       1.0  0.20224  0.08562  0.47875  1.0000
  H   H18       1.0  0.79838  0.91450  0.52119  1.0000
  H   H19       1.0  0.20522  0.27798  0.49879  1.0000
  H   H20       1.0  0.79512  0.72194  0.50078  1.0000
  H   H21       1.0  0.52479  0.17924  0.51603  1.0000
  H   H22       1.0  0.47553  0.81991  0.48411  1.0000
  H   H23       1.0  0.43200  0.20544  0.41916  1.0000
  H   H24       1.0  0.56788  0.79396  0.58126  1.0000
  H   H25       1.0  0.74012  0.83378  0.26017  1.0000
  H   H26       1.0  0.25960  0.16594  0.73886  1.0000
  C   C1        1.0  0.97835  0.49379  0.27078  1.0000
  C   C2        1.0  0.02138  0.50619  0.72931  1.0000
  C   C3        1.0  0.91261  0.33069  0.29725  1.0000
  C   C4        1.0  0.08716  0.66930  0.70283  1.0000
  C   C5        1.0  0.12280  0.50858  0.19660  1.0000
  C   C6        1.0  0.87700  0.49153  0.80359  1.0000
  C   C7        1.0  0.14830  0.34851  0.13025  1.0000
  C   C8        1.0  0.85171  0.65190  0.86966  1.0000
  C   C9        1.0  0.25050  0.62214  0.29828  1.0000
  C   C10       1.0  0.74928  0.37762  0.70200  1.0000
  C   C11       1.0  0.37251  0.78476  0.29002  1.0000
  C   C12       1.0  0.62706  0.21503  0.71007  1.0000
  C   C13       1.0  0.10232  0.63452  0.36916  1.0000
  C   C14       1.0  0.89742  0.36527  0.63102  1.0000
  C   C15       1.0  0.08859  0.80576  0.39919  1.0000
  C   C16       1.0  0.91172  0.19423  0.60094  1.0000
  O   O1        1.0  0.75694  0.26348  0.29304  1.0000
  O   O2        1.0  0.24272  0.73633  0.70694  1.0000
  O   O3        1.0  0.02256  0.27914  0.32744  1.0000
  O   O4        1.0  0.97712  0.72088  0.67283  1.0000
  O   O5        1.0  0.01655  0.23381  0.07209  1.0000
  O   O6        1.0  0.98354  0.76660  0.92775  1.0000
  O   O7        1.0  0.29083  0.33848  0.13676  1.0000
  O   O8        1.0  0.70929  0.66211  0.86300  1.0000
  O   O9        1.0  0.34981  0.84751  0.21790  1.0000
  O   O10       1.0  0.64926  0.15211  0.78222  1.0000
  O   O11       1.0  0.50291  0.85600  0.36510  1.0000
  O   O12       1.0  0.49693  0.14386  0.63474  1.0000
  O   O13       1.0  0.77718  0.94604  0.25265  1.0000
  O   O14       1.0  0.22319  0.05455  0.74780  1.0000
  O   O15       1.0  0.99400  0.83235  0.33373  1.0000
  O   O16       1.0  0.00691  0.16784  0.66613  1.0000
  O   O17       1.0  0.17807  0.91562  0.48674  1.0000
  O   O18       1.0  0.82221  0.08437  0.51341  1.0000
  O   O19       1.0  0.54237  0.20996  0.44511  1.0000
  O   O20       1.0  0.45760  0.78921  0.55495  1.0000
  O   O21       1.0  0.21518  0.18051  0.44350  1.0000
  O   O22       1.0  0.78532  0.81935  0.55624  1.0000
  O   O23       1.0  0.16449  0.03269  0.18858  1.0000
  O   O24       1.0  0.83535  0.96728  0.81081  1.0000
  O   O25       1.0  0.23189  0.06722  0.96133  1.0000
  O   O26       1.0  0.76853  0.93345  0.03890  1.0000
