data_image0
_chemical_formula_structural       Ag4H44C32S4N8O8
_chemical_formula_sum              "Ag4 H44 C32 S4 N8 O8"
_cell_length_a       7.75206
_cell_length_b       8.66848
_cell_length_c       15.2981
_cell_angle_alpha    89.9999
_cell_angle_beta     89.9999
_cell_angle_gamma    111.578

_space_group_name_H-M_alt    "P 1"
_space_group_IT_number       1

loop_
  _space_group_symop_operation_xyz
  'x, y, z'

loop_
  _atom_site_type_symbol
  _atom_site_label
  _atom_site_symmetry_multiplicity
  _atom_site_fract_x
  _atom_site_fract_y
  _atom_site_fract_z
  _atom_site_occupancy
  Ag  Ag1       1.0  0.24808  0.32551  0.69337  1.0000
  Ag  Ag2       1.0  0.75193  0.17450  0.19336  1.0000
  Ag  Ag3       1.0  0.75193  0.67449  0.30664  1.0000
  Ag  Ag4       1.0  0.24807  0.82551  0.80663  1.0000
  H   H1        1.0  0.62468  0.58617  0.48983  1.0000
  H   H2        1.0  0.37531  0.91382  0.98982  1.0000
  H   H3        1.0  0.37532  0.41383  0.51018  1.0000
  H   H4        1.0  0.62468  0.08617  0.01017  1.0000
  H   H5        1.0  0.35292  0.75477  0.55997  1.0000
  H   H6        1.0  0.64707  0.74523  0.05997  1.0000
  H   H7        1.0  0.64708  0.24522  0.44003  1.0000
  H   H8        1.0  0.35292  0.25477  0.94003  1.0000
  H   H9        1.0  0.25276  0.80576  0.46433  1.0000
  H   H10       1.0  0.74723  0.69424  0.96433  1.0000
  H   H11       1.0  0.74724  0.19424  0.53567  1.0000
  H   H12       1.0  0.25276  0.30576  0.03567  1.0000
  H   H13       1.0  0.94828  0.33804  0.73668  1.0000
  H   H14       1.0  0.05172  0.16196  0.23667  1.0000
  H   H15       1.0  0.05172  0.66196  0.26332  1.0000
  H   H16       1.0  0.94828  0.83804  0.76332  1.0000
  H   H17       1.0  0.71215  0.25701  0.70285  1.0000
  H   H18       1.0  0.28785  0.24299  0.20285  1.0000
  H   H19       1.0  0.28785  0.74300  0.29715  1.0000
  H   H20       1.0  0.71215  0.75701  0.79715  1.0000
  H   H21       1.0  0.64127  0.45762  0.80060  1.0000
  H   H22       1.0  0.35873  0.04238  0.30060  1.0000
  H   H23       1.0  0.35873  0.54238  0.19940  1.0000
  H   H24       1.0  0.64127  0.95761  0.69940  1.0000
  H   H25       1.0  0.87683  0.53722  0.83792  1.0000
  H   H26       1.0  0.12317  0.96278  0.33793  1.0000
  H   H27       1.0  0.12317  0.46278  0.16207  1.0000
  H   H28       1.0  0.87683  0.03722  0.66207  1.0000
  H   H29       1.0  0.73243  0.32897  0.85979  1.0000
  H   H30       1.0  0.26757  0.17103  0.35979  1.0000
  H   H31       1.0  0.26757  0.67103  0.14021  1.0000
  H   H32       1.0  0.73243  0.82897  0.64021  1.0000
  H   H33       1.0  0.18534  0.02735  0.54599  1.0000
  H   H34       1.0  0.81466  0.47265  0.04599  1.0000
  H   H35       1.0  0.81467  0.97265  0.45401  1.0000
  H   H36       1.0  0.18535  0.52736  0.95401  1.0000
  H   H37       1.0  0.42581  0.06392  0.55150  1.0000
  H   H38       1.0  0.57419  0.43607  0.05151  1.0000
  H   H39       1.0  0.57420  0.93607  0.44850  1.0000
  H   H40       1.0  0.42581  0.56392  0.94849  1.0000
  H   H41       1.0  0.28168  0.97803  0.64250  1.0000
  H   H42       1.0  0.71832  0.52197  0.14250  1.0000
  H   H43       1.0  0.71833  0.02197  0.35750  1.0000
  H   H44       1.0  0.28169  0.47803  0.85750  1.0000
  C   C1        1.0  0.03856  0.59330  0.63437  1.0000
  C   C2        1.0  0.96144  0.90669  0.13437  1.0000
  C   C3        1.0  0.96145  0.40670  0.36563  1.0000
  C   C4        1.0  0.03856  0.09331  0.86563  1.0000
  C   C5        1.0  0.70361  0.48050  0.60359  1.0000
  C   C6        1.0  0.29638  0.01949  0.10358  1.0000
  C   C7        1.0  0.29638  0.51950  0.39642  1.0000
  C   C8        1.0  0.70361  0.98050  0.89641  1.0000
  C   C9        1.0  0.73839  0.58540  0.53102  1.0000
  C   C10       1.0  0.26160  0.91459  0.03102  1.0000
  C   C11       1.0  0.26161  0.41460  0.46898  1.0000
  C   C12       1.0  0.73840  0.08541  0.96898  1.0000
  C   C13       1.0  0.91703  0.68404  0.50429  1.0000
  C   C14       1.0  0.08296  0.81595  0.00429  1.0000
  C   C15       1.0  0.08297  0.31595  0.49571  1.0000
  C   C16       1.0  0.91702  0.18404  0.99571  1.0000
  C   C17       1.0  0.25168  0.80536  0.53586  1.0000
  C   C18       1.0  0.74831  0.69464  0.03585  1.0000
  C   C19       1.0  0.74832  0.19464  0.46415  1.0000
  C   C20       1.0  0.25168  0.30536  0.96415  1.0000
  C   C21       1.0  0.82409  0.36805  0.72677  1.0000
  C   C22       1.0  0.17591  0.13195  0.22677  1.0000
  C   C23       1.0  0.17591  0.63195  0.27323  1.0000
  C   C24       1.0  0.82409  0.86805  0.77323  1.0000
  C   C25       1.0  0.76615  0.42861  0.81091  1.0000
  C   C26       1.0  0.23385  0.07139  0.31091  1.0000
  C   C27       1.0  0.23385  0.57139  0.18909  1.0000
  C   C28       1.0  0.76615  0.92861  0.68909  1.0000
  C   C29       1.0  0.28770  0.97842  0.57083  1.0000
  C   C30       1.0  0.71230  0.52158  0.07083  1.0000
  C   C31       1.0  0.71231  0.02158  0.42918  1.0000
  C   C32       1.0  0.28770  0.47842  0.92917  1.0000
  S   S1        1.0  0.22772  0.60737  0.69882  1.0000
  S   S2        1.0  0.77228  0.89263  0.19882  1.0000
  S   S3        1.0  0.77229  0.39263  0.30119  1.0000
  S   S4        1.0  0.22772  0.10737  0.80118  1.0000
  N   N1        1.0  0.06584  0.68838  0.56115  1.0000
  N   N2        1.0  0.93416  0.81162  0.06115  1.0000
  N   N3        1.0  0.93416  0.31162  0.43885  1.0000
  N   N4        1.0  0.06584  0.18838  0.93885  1.0000
  N   N5        1.0  0.86389  0.48809  0.65409  1.0000
  N   N6        1.0  0.13611  0.01191  0.15409  1.0000
  N   N7        1.0  0.13612  0.51192  0.34591  1.0000
  N   N8        1.0  0.86388  0.98809  0.84591  1.0000
  O   O1        1.0  0.54854  0.37784  0.62735  1.0000
  O   O2        1.0  0.45146  0.12215  0.12735  1.0000
  O   O3        1.0  0.45146  0.62217  0.37265  1.0000
  O   O4        1.0  0.54854  0.87784  0.87265  1.0000
  O   O5        1.0  0.95846  0.76846  0.43491  1.0000
  O   O6        1.0  0.04153  0.73155  0.93491  1.0000
  O   O7        1.0  0.04154  0.23155  0.56509  1.0000
  O   O8        1.0  0.95846  0.26846  0.06509  1.0000
