data_image0
_chemical_formula_structural       Sm4H22C22N2O32
_chemical_formula_sum              "Sm4 H22 C22 N2 O32"
_cell_length_a       7.75154
_cell_length_b       10.9872
_cell_length_c       12.7279
_cell_angle_alpha    94.2032
_cell_angle_beta     103.914
_cell_angle_gamma    108.283

_space_group_name_H-M_alt    "P 1"
_space_group_IT_number       1

loop_
  _space_group_symop_operation_xyz
  'x, y, z'

loop_
  _atom_site_type_symbol
  _atom_site_label
  _atom_site_symmetry_multiplicity
  _atom_site_fract_x
  _atom_site_fract_y
  _atom_site_fract_z
  _atom_site_occupancy
  Sm  Sm1       1.0  0.72845  0.32199  0.10197  1.0000
  Sm  Sm2       1.0  0.27155  0.67801  0.89802  1.0000
  Sm  Sm3       1.0  0.18012  0.96404  0.30697  1.0000
  Sm  Sm4       1.0  0.81988  0.03595  0.69303  1.0000
  H   H1        1.0  0.40321  0.07175  0.95743  1.0000
  H   H2        1.0  0.59678  0.92827  0.04256  1.0000
  H   H3        1.0  0.33134  0.18543  0.93977  1.0000
  H   H4        1.0  0.66867  0.81458  0.06023  1.0000
  H   H5        1.0  0.10587  0.40392  0.05945  1.0000
  H   H6        1.0  0.89413  0.59609  0.94055  1.0000
  H   H7        1.0  0.98565  0.37372  0.93903  1.0000
  H   H8        1.0  0.01435  0.62629  0.06097  1.0000
  H   H9        1.0  0.25275  0.92888  0.07519  1.0000
  H   H10       1.0  0.74723  0.07113  0.92481  1.0000
  H   H11       1.0  0.42179  0.03435  0.16880  1.0000
  H   H12       1.0  0.57821  0.96565  0.83118  1.0000
  H   H13       1.0  0.44634  0.82906  0.29182  1.0000
  H   H14       1.0  0.55365  0.17093  0.70817  1.0000
  H   H15       1.0  0.54468  0.90551  0.41106  1.0000
  H   H16       1.0  0.45532  0.09449  0.58894  1.0000
  H   H17       1.0  0.61624  0.33842  0.52051  1.0000
  H   H18       1.0  0.38379  0.66158  0.47948  1.0000
  H   H19       1.0  0.78554  0.58133  0.58688  1.0000
  H   H20       1.0  0.21445  0.41864  0.41312  1.0000
  H   H21       1.0  0.93482  0.71593  0.46009  1.0000
  H   H22       1.0  0.06517  0.28406  0.53993  1.0000
  C   C1        1.0  0.67644  0.35113  0.36442  1.0000
  C   C2        1.0  0.32356  0.64886  0.63558  1.0000
  C   C3        1.0  0.68290  0.40291  0.46954  1.0000
  C   C4        1.0  0.31712  0.59708  0.53046  1.0000
  C   C5        1.0  0.77594  0.53616  0.50545  1.0000
  C   C6        1.0  0.22407  0.46382  0.49455  1.0000
  C   C7        1.0  0.86022  0.61189  0.43576  1.0000
  C   C8        1.0  0.13978  0.38810  0.56424  1.0000
  C   C9        1.0  0.84945  0.55157  0.33263  1.0000
  C   C10       1.0  0.15056  0.44841  0.66738  1.0000
  C   C11       1.0  0.57245  0.21087  0.31475  1.0000
  C   C12       1.0  0.42758  0.78912  0.68524  1.0000
  C   C13       1.0  0.93793  0.62201  0.25123  1.0000
  C   C14       1.0  0.06205  0.37796  0.74879  1.0000
  C   C15       1.0  0.55562  0.51267  0.95602  1.0000
  C   C16       1.0  0.44438  0.48734  0.04398  1.0000
  C   C17       1.0  0.09968  0.02095  0.54178  1.0000
  C   C18       1.0  0.90033  0.97905  0.45823  1.0000
  C   C19       1.0  0.90363  0.08185  0.14306  1.0000
  C   C20       1.0  0.09637  0.91816  0.85694  1.0000
  C   C21       1.0  0.03056  0.19835  0.23546  1.0000
  C   C22       1.0  0.96945  0.80166  0.76454  1.0000
  N   N1        1.0  0.75842  0.42416  0.29825  1.0000
  N   N2        1.0  0.24158  0.57583  0.70175  1.0000
  O   O1        1.0  0.57269  0.17929  0.21554  1.0000
  O   O2        1.0  0.42729  0.82070  0.78444  1.0000
  O   O3        1.0  0.48932  0.13373  0.36965  1.0000
  O   O4        1.0  0.51069  0.86628  0.63035  1.0000
  O   O5        1.0  0.92716  0.55282  0.16349  1.0000
  O   O6        1.0  0.07281  0.44715  0.83653  1.0000
  O   O7        1.0  0.01556  0.74380  0.27306  1.0000
  O   O8        1.0  0.98443  0.25619  0.72696  1.0000
  O   O9        1.0  0.66448  0.44808  0.95147  1.0000
  O   O10       1.0  0.33554  0.55194  0.04852  1.0000
  O   O11       1.0  0.53090  0.59656  0.89682  1.0000
  O   O12       1.0  0.46910  0.40346  0.10319  1.0000
  O   O13       1.0  0.76653  0.09826  0.07338  1.0000
  O   O14       1.0  0.23348  0.90176  0.92662  1.0000
  O   O15       1.0  0.94131  0.97816  0.14475  1.0000
  O   O16       1.0  0.05867  0.02184  0.85525  1.0000
  O   O17       1.0  0.00139  0.30473  0.23135  1.0000
  O   O18       1.0  0.99862  0.69528  0.76865  1.0000
  O   O19       1.0  0.15320  0.17605  0.30949  1.0000
  O   O20       1.0  0.84681  0.82395  0.69050  1.0000
  O   O21       1.0  0.23376  0.01327  0.50264  1.0000
  O   O22       1.0  0.76625  0.98674  0.49737  1.0000
  O   O23       1.0  0.11481  0.05902  0.63999  1.0000
  O   O24       1.0  0.88518  0.94100  0.36002  1.0000
  O   O25       1.0  0.44892  0.16752  0.96497  1.0000
  O   O26       1.0  0.55109  0.83250  0.03505  1.0000
  O   O27       1.0  0.98183  0.34726  0.01194  1.0000
  O   O28       1.0  0.01817  0.65274  0.98805  1.0000
  O   O29       1.0  0.31206  0.95006  0.15489  1.0000
  O   O30       1.0  0.68794  0.04994  0.84510  1.0000
  O   O31       1.0  0.41867  0.85228  0.35984  1.0000
  O   O32       1.0  0.58133  0.14771  0.64016  1.0000
