data_image0
_chemical_formula_structural       Gd4H22C22N2O32
_chemical_formula_sum              "Gd4 H22 C22 N2 O32"
_cell_length_a       7.8823
_cell_length_b       10.8165
_cell_length_c       12.547
_cell_angle_alpha    93.9794
_cell_angle_beta     105.176
_cell_angle_gamma    107.715

_space_group_name_H-M_alt    "P 1"
_space_group_IT_number       1

loop_
  _space_group_symop_operation_xyz
  'x, y, z'

loop_
  _atom_site_type_symbol
  _atom_site_label
  _atom_site_symmetry_multiplicity
  _atom_site_fract_x
  _atom_site_fract_y
  _atom_site_fract_z
  _atom_site_occupancy
  Gd  Gd1       1.0  0.27158  0.17903  0.39892  1.0000
  Gd  Gd2       1.0  0.72842  0.82097  0.60107  1.0000
  Gd  Gd3       1.0  0.81726  0.53605  0.19002  1.0000
  Gd  Gd4       1.0  0.18274  0.46395  0.80998  1.0000
  H   H1        1.0  0.39564  0.14943  0.98067  1.0000
  H   H2        1.0  0.60437  0.85057  0.01933  1.0000
  H   H3        1.0  0.22242  0.90672  0.91474  1.0000
  H   H4        1.0  0.77756  0.09328  0.08525  1.0000
  H   H5        1.0  0.06201  0.77669  0.03991  1.0000
  H   H6        1.0  0.93796  0.22331  0.96008  1.0000
  H   H7        1.0  0.90379  0.10899  0.43776  1.0000
  H   H8        1.0  0.09622  0.89101  0.56224  1.0000
  H   H9        1.0  0.01967  0.12477  0.56112  1.0000
  H   H10       1.0  0.98032  0.87524  0.43888  1.0000
  H   H11       1.0  0.60460  0.42686  0.53963  1.0000
  H   H12       1.0  0.39541  0.57313  0.46037  1.0000
  H   H13       1.0  0.63339  0.30451  0.58749  1.0000
  H   H14       1.0  0.36662  0.69548  0.41252  1.0000
  H   H15       1.0  0.42154  0.52797  0.67222  1.0000
  H   H16       1.0  0.57847  0.47203  0.32778  1.0000
  H   H17       1.0  0.25014  0.41966  0.58135  1.0000
  H   H18       1.0  0.74987  0.58034  0.41865  1.0000
  H   H19       1.0  0.41225  0.35351  0.98071  1.0000
  H   H20       1.0  0.58775  0.64649  0.01929  1.0000
  H   H21       1.0  0.53522  0.40723  0.90715  1.0000
  H   H22       1.0  0.46478  0.59276  0.09284  1.0000
  C   C1        1.0  0.32261  0.14566  0.13526  1.0000
  C   C2        1.0  0.67739  0.85434  0.86474  1.0000
  C   C3        1.0  0.32256  0.08923  0.03157  1.0000
  C   C4        1.0  0.67745  0.91077  0.96843  1.0000
  C   C5        1.0  0.22763  0.95469  0.99545  1.0000
  C   C6        1.0  0.77236  0.04532  0.00455  1.0000
  C   C7        1.0  0.13718  0.88179  0.06412  1.0000
  C   C8        1.0  0.86280  0.11821  0.93588  1.0000
  C   C9        1.0  0.14538  0.94602  0.16690  1.0000
  C   C10       1.0  0.85459  0.05398  0.83310  1.0000
  C   C11       1.0  0.42353  0.28796  0.18528  1.0000
  C   C12       1.0  0.57649  0.71204  0.81472  1.0000
  C   C13       1.0  0.05773  0.87737  0.24928  1.0000
  C   C14       1.0  0.94225  0.12263  0.75072  1.0000
  C   C15       1.0  0.96631  0.30244  0.26568  1.0000
  C   C16       1.0  0.03369  0.69756  0.73432  1.0000
  C   C17       1.0  0.09475  0.42173  0.35794  1.0000
  C   C18       1.0  0.90526  0.57828  0.64206  1.0000
  C   C19       1.0  0.55156  0.01144  0.45448  1.0000
  C   C20       1.0  0.44844  0.98855  0.54552  1.0000
  C   C21       1.0  0.09662  0.52013  0.04469  1.0000
  C   C22       1.0  0.90338  0.47988  0.95532  1.0000
  N   N1        1.0  0.23621  0.07486  0.20099  1.0000
  N   N2        1.0  0.76379  0.92514  0.79901  1.0000
  O   O1        1.0  0.42451  0.32187  0.28497  1.0000
  O   O2        1.0  0.57551  0.67813  0.71503  1.0000
  O   O3        1.0  0.50325  0.36628  0.12863  1.0000
  O   O4        1.0  0.49676  0.63371  0.87138  1.0000
  O   O5        1.0  0.07284  0.94912  0.33836  1.0000
  O   O6        1.0  0.92713  0.05089  0.66163  1.0000
  O   O7        1.0  0.97804  0.75453  0.22678  1.0000
  O   O8        1.0  0.02196  0.24548  0.77322  1.0000
  O   O9        1.0  0.00116  0.19618  0.26846  1.0000
  O   O10       1.0  0.99884  0.80383  0.73155  1.0000
  O   O11       1.0  0.83630  0.32202  0.19242  1.0000
  O   O12       1.0  0.16371  0.67799  0.80758  1.0000
  O   O13       1.0  0.23432  0.40572  0.42785  1.0000
  O   O14       1.0  0.76568  0.59429  0.57215  1.0000
  O   O15       1.0  0.05594  0.52630  0.35543  1.0000
  O   O16       1.0  0.94409  0.47371  0.64456  1.0000
  O   O17       1.0  0.52077  0.09430  0.39247  1.0000
  O   O18       1.0  0.47922  0.90569  0.60752  1.0000
  O   O19       1.0  0.65926  0.94579  0.45046  1.0000
  O   O20       1.0  0.34073  0.05420  0.54953  1.0000
  O   O21       1.0  0.89360  0.44492  0.85581  1.0000
  O   O22       1.0  0.10640  0.55509  0.14418  1.0000
  O   O23       1.0  0.23088  0.51367  0.00830  1.0000
  O   O24       1.0  0.76913  0.48632  0.99169  1.0000
  O   O25       1.0  0.02858  0.15582  0.48914  1.0000
  O   O26       1.0  0.97143  0.84418  0.51086  1.0000
  O   O27       1.0  0.53831  0.33265  0.53923  1.0000
  O   O28       1.0  0.46169  0.66733  0.46077  1.0000
  O   O29       1.0  0.30897  0.44837  0.66234  1.0000
  O   O30       1.0  0.69104  0.55162  0.33766  1.0000
  O   O31       1.0  0.40250  0.36079  0.90115  1.0000
  O   O32       1.0  0.59750  0.63920  0.09885  1.0000
