data_image0
_chemical_formula_structural       Cd4H4C8O12
_chemical_formula_sum              "Cd4 H4 C8 O12"
_cell_length_a       3.64546
_cell_length_b       8.76592
_cell_length_c       10.5654
_cell_angle_alpha    90.0021
_cell_angle_beta     90.0016
_cell_angle_gamma    102.461

_space_group_name_H-M_alt    "P 1"
_space_group_IT_number       1

loop_
  _space_group_symop_operation_xyz
  'x, y, z'

loop_
  _atom_site_type_symbol
  _atom_site_label
  _atom_site_symmetry_multiplicity
  _atom_site_fract_x
  _atom_site_fract_y
  _atom_site_fract_z
  _atom_site_occupancy
  Cd  Cd1       1.0  0.79386  0.07341  0.37597  1.0000
  Cd  Cd2       1.0  0.20614  0.42658  0.87597  1.0000
  Cd  Cd3       1.0  0.20616  0.92659  0.62403  1.0000
  Cd  Cd4       1.0  0.79385  0.57342  0.12404  1.0000
  H   H1        1.0  0.13567  0.82199  0.36597  1.0000
  H   H2        1.0  0.86432  0.67799  0.86598  1.0000
  H   H3        1.0  0.86433  0.17801  0.63403  1.0000
  H   H4        1.0  0.13568  0.32200  0.13403  1.0000
  C   C1        1.0  0.43275  0.39886  0.44456  1.0000
  C   C2        1.0  0.56726  0.10115  0.94456  1.0000
  C   C3        1.0  0.56720  0.60117  0.55545  1.0000
  C   C4        1.0  0.43281  0.89884  0.05543  1.0000
  C   C5        1.0  0.65475  0.55914  0.42498  1.0000
  C   C6        1.0  0.34522  0.94086  0.92497  1.0000
  C   C7        1.0  0.34519  0.44088  0.57502  1.0000
  C   C8        1.0  0.65483  0.05912  0.07502  1.0000
  O   O1        1.0  0.35932  0.27813  0.37586  1.0000
  O   O2        1.0  0.64066  0.22187  0.87585  1.0000
  O   O3        1.0  0.64065  0.72189  0.62415  1.0000
  O   O4        1.0  0.35938  0.77811  0.12415  1.0000
  O   O5        1.0  0.84381  0.63154  0.33492  1.0000
  O   O6        1.0  0.15613  0.86846  0.83493  1.0000
  O   O7        1.0  0.15611  0.36848  0.66509  1.0000
  O   O8        1.0  0.84388  0.13152  0.16506  1.0000
  O   O9        1.0  0.22071  0.92571  0.40530  1.0000
  O   O10       1.0  0.77931  0.57428  0.90530  1.0000
  O   O11       1.0  0.77932  0.07429  0.59470  1.0000
  O   O12       1.0  0.22069  0.42572  0.09470  1.0000
