data_image0
_chemical_formula_structural       Cd6H4C16O20
_chemical_formula_sum              "Cd6 H4 C16 O20"
_cell_length_a       7.25815
_cell_length_b       7.63342
_cell_length_c       12.0372
_cell_angle_alpha    78.5588
_cell_angle_beta     72.4374
_cell_angle_gamma    61.6349

_space_group_name_H-M_alt    "P 1"
_space_group_IT_number       1

loop_
  _space_group_symop_operation_xyz
  'x, y, z'

loop_
  _atom_site_type_symbol
  _atom_site_label
  _atom_site_symmetry_multiplicity
  _atom_site_fract_x
  _atom_site_fract_y
  _atom_site_fract_z
  _atom_site_occupancy
  Cd  Cd1       1.0  0.00000  0.00000  0.50000  1.0000
  Cd  Cd2       1.0  0.50000  0.00000  0.50000  1.0000
  Cd  Cd3       1.0  0.29084  0.70322  0.71540  1.0000
  Cd  Cd4       1.0  0.70916  0.29678  0.28460  1.0000
  Cd  Cd5       1.0  0.00000  0.50000  0.00000  1.0000
  Cd  Cd6       1.0  0.50000  0.50000  1.00000  1.0000
  H   H1        1.0  0.58210  0.30303  0.53278  1.0000
  H   H2        1.0  0.41790  0.69697  0.46722  1.0000
  H   H3        1.0  0.13640  0.78319  0.94438  1.0000
  H   H4        1.0  0.86360  0.21680  0.05561  1.0000
  C   C1        1.0  0.02493  0.33599  0.61440  1.0000
  C   C2        1.0  0.97507  0.66401  0.38560  1.0000
  C   C3        1.0  0.08875  0.42651  0.68309  1.0000
  C   C4        1.0  0.19804  0.57344  0.31689  1.0000
  C   C5        1.0  0.91125  0.57349  0.31691  1.0000
  C   C6        1.0  0.80195  0.42657  0.68311  1.0000
  C   C7        1.0  0.87125  0.49530  0.76262  1.0000
  C   C8        1.0  0.12875  0.50470  0.23738  1.0000
  C   C9        1.0  0.27575  0.01164  0.23429  1.0000
  C   C10       1.0  0.52208  0.98823  0.76564  1.0000
  C   C11       1.0  0.72425  0.98836  0.76571  1.0000
  C   C12       1.0  0.47792  0.01177  0.23436  1.0000
  C   C13       1.0  0.38861  0.88127  0.13597  1.0000
  C   C14       1.0  0.40585  0.11873  0.86391  1.0000
  C   C15       1.0  0.61139  0.11872  0.86403  1.0000
  C   C16       1.0  0.59415  0.88127  0.13609  1.0000
  O   O1        1.0  0.12418  0.22108  0.53066  1.0000
  O   O2        1.0  0.87582  0.77892  0.46934  1.0000
  O   O3        1.0  0.26004  0.43789  0.67302  1.0000
  O   O4        1.0  0.37071  0.56200  0.32685  1.0000
  O   O5        1.0  0.73996  0.56211  0.32698  1.0000
  O   O6        1.0  0.62929  0.43800  0.67316  1.0000
  O   O7        1.0  0.78398  0.57143  0.86109  1.0000
  O   O8        1.0  0.21602  0.42857  0.13891  1.0000
  O   O9        1.0  0.08348  0.08244  0.29756  1.0000
  O   O10       1.0  0.46435  0.91712  0.70226  1.0000
  O   O11       1.0  0.91651  0.91756  0.70244  1.0000
  O   O12       1.0  0.53564  0.08288  0.29774  1.0000
  O   O13       1.0  0.32958  0.80082  0.08135  1.0000
  O   O14       1.0  0.21164  0.19921  0.91828  1.0000
  O   O15       1.0  0.67042  0.19918  0.91865  1.0000
  O   O16       1.0  0.78836  0.80080  0.08171  1.0000
  O   O17       1.0  0.66282  0.19598  0.47851  1.0000
  O   O18       1.0  0.33718  0.80402  0.52149  1.0000
  O   O19       1.0  0.21830  0.65498  0.90858  1.0000
  O   O20       1.0  0.78170  0.34502  0.09142  1.0000
