data_image0
_chemical_formula_structural       Cd8H8C16O24
_chemical_formula_sum              "Cd8 H8 C16 O24"
_cell_length_a       5.91164
_cell_length_b       6.9635
_cell_length_c       15.8502
_cell_angle_alpha    90.0003
_cell_angle_beta     90
_cell_angle_gamma    90.0007

_space_group_name_H-M_alt    "P 1"
_space_group_IT_number       1

loop_
  _space_group_symop_operation_xyz
  'x, y, z'

loop_
  _atom_site_type_symbol
  _atom_site_label
  _atom_site_symmetry_multiplicity
  _atom_site_fract_x
  _atom_site_fract_y
  _atom_site_fract_z
  _atom_site_occupancy
  Cd  Cd1       1.0  0.02764  0.60176  0.69218  1.0000
  Cd  Cd2       1.0  0.97235  0.89823  0.19219  1.0000
  Cd  Cd3       1.0  0.52765  0.39823  0.80782  1.0000
  Cd  Cd4       1.0  0.47235  0.10177  0.30781  1.0000
  Cd  Cd5       1.0  0.97235  0.39823  0.30781  1.0000
  Cd  Cd6       1.0  0.02764  0.10177  0.80781  1.0000
  Cd  Cd7       1.0  0.47235  0.60177  0.19219  1.0000
  Cd  Cd8       1.0  0.52764  0.89823  0.69218  1.0000
  H   H1        1.0  0.29611  0.72920  0.82157  1.0000
  H   H2        1.0  0.70388  0.77081  0.32156  1.0000
  H   H3        1.0  0.79610  0.27080  0.67843  1.0000
  H   H4        1.0  0.20388  0.22919  0.17843  1.0000
  H   H5        1.0  0.70388  0.27081  0.17843  1.0000
  H   H6        1.0  0.29611  0.22920  0.67842  1.0000
  H   H7        1.0  0.20388  0.72920  0.32157  1.0000
  H   H8        1.0  0.79610  0.77080  0.82157  1.0000
  C   C1        1.0  0.58428  0.56980  0.54857  1.0000
  C   C2        1.0  0.41574  0.93022  0.04857  1.0000
  C   C3        1.0  0.08429  0.43021  0.95144  1.0000
  C   C4        1.0  0.91572  0.06980  0.45143  1.0000
  C   C5        1.0  0.41574  0.43022  0.45143  1.0000
  C   C6        1.0  0.58428  0.06979  0.95144  1.0000
  C   C7        1.0  0.91575  0.56978  0.04857  1.0000
  C   C8        1.0  0.08428  0.93020  0.54857  1.0000
  C   C9        1.0  0.37159  0.45936  0.54199  1.0000
  C   C10       1.0  0.62839  0.04065  0.04199  1.0000
  C   C11       1.0  0.87161  0.54064  0.95801  1.0000
  C   C12       1.0  0.12842  0.95935  0.45801  1.0000
  C   C13       1.0  0.62840  0.54065  0.45800  1.0000
  C   C14       1.0  0.37161  0.95937  0.95801  1.0000
  C   C15       1.0  0.12840  0.45935  0.04199  1.0000
  C   C16       1.0  0.87160  0.04065  0.54200  1.0000
  O   O1        1.0  0.68760  0.65506  0.60766  1.0000
  O   O2        1.0  0.31238  0.84494  0.10767  1.0000
  O   O3        1.0  0.18762  0.34493  0.89234  1.0000
  O   O4        1.0  0.81241  0.15505  0.39234  1.0000
  O   O5        1.0  0.31238  0.34495  0.39233  1.0000
  O   O6        1.0  0.68762  0.15507  0.89234  1.0000
  O   O7        1.0  0.81239  0.65505  0.10767  1.0000
  O   O8        1.0  0.18761  0.84493  0.60766  1.0000
  O   O9        1.0  0.21729  0.40572  0.59189  1.0000
  O   O10       1.0  0.78272  0.09429  0.09189  1.0000
  O   O11       1.0  0.71729  0.59428  0.90811  1.0000
  O   O12       1.0  0.28271  0.90572  0.40812  1.0000
  O   O13       1.0  0.78271  0.59429  0.40811  1.0000
  O   O14       1.0  0.21727  0.90572  0.90811  1.0000
  O   O15       1.0  0.28272  0.40571  0.09189  1.0000
  O   O16       1.0  0.71730  0.09428  0.59189  1.0000
  O   O17       1.0  0.34402  0.66490  0.76910  1.0000
  O   O18       1.0  0.65598  0.83510  0.26910  1.0000
  O   O19       1.0  0.84402  0.33510  0.73090  1.0000
  O   O20       1.0  0.15597  0.16491  0.23090  1.0000
  O   O21       1.0  0.65597  0.33510  0.23090  1.0000
  O   O22       1.0  0.34402  0.16490  0.73090  1.0000
  O   O23       1.0  0.15597  0.66491  0.26910  1.0000
  O   O24       1.0  0.84402  0.83509  0.76910  1.0000
