data_image0
_chemical_formula_structural       Cu4H8C12Br2N10
_chemical_formula_sum              "Cu4 H8 C12 Br2 N10"
_cell_length_a       3.73677
_cell_length_b       9.98208
_cell_length_c       11.5621
_cell_angle_alpha    103.779
_cell_angle_beta     90.1682
_cell_angle_gamma    100.615

_space_group_name_H-M_alt    "P 1"
_space_group_IT_number       1

loop_
  _space_group_symop_operation_xyz
  'x, y, z'

loop_
  _atom_site_type_symbol
  _atom_site_label
  _atom_site_symmetry_multiplicity
  _atom_site_fract_x
  _atom_site_fract_y
  _atom_site_fract_z
  _atom_site_occupancy
  Cu  Cu1       1.0  0.27945  0.51168  0.43366  1.0000
  Cu  Cu2       1.0  0.23601  0.51167  0.93321  1.0000
  Cu  Cu3       1.0  0.31905  0.31973  0.61567  1.0000
  Cu  Cu4       1.0  0.99835  0.31946  0.11747  1.0000
  H   H1        1.0  0.47089  0.05711  0.45612  1.0000
  H   H2        1.0  0.58031  0.05838  0.95828  1.0000
  H   H3        1.0  0.43865  0.81289  0.47432  1.0000
  H   H4        1.0  0.37170  0.81357  0.97502  1.0000
  H   H5        1.0  0.95420  0.93236  0.81436  1.0000
  H   H6        1.0  0.97835  0.93012  0.31519  1.0000
  H   H7        1.0  0.98444  0.16969  0.77787  1.0000
  H   H8        1.0  0.18289  0.16818  0.28013  1.0000
  C   C1        1.0  0.35003  0.02370  0.53283  1.0000
  C   C2        1.0  0.66927  0.02421  0.03468  1.0000
  C   C3        1.0  0.33383  0.88745  0.54455  1.0000
  C   C4        1.0  0.55126  0.88761  0.04554  1.0000
  C   C5        1.0  0.20030  0.85225  0.64878  1.0000
  C   C6        1.0  0.65192  0.85142  0.14935  1.0000
  C   C7        1.0  0.06816  0.95554  0.73323  1.0000
  C   C8        1.0  0.88697  0.95420  0.23430  1.0000
  C   C9        1.0  0.08706  0.08816  0.71395  1.0000
  C   C10       1.0  0.99902  0.08712  0.21576  1.0000
  C   C11       1.0  0.21753  0.71953  0.67804  1.0000
  C   C12       1.0  0.50380  0.71846  0.17816  1.0000
  Br  Br1       1.0  0.69181  0.33233  0.42484  1.0000
  Br  Br2       1.0  0.64635  0.33236  0.92457  1.0000
  N   N1        1.0  0.23493  0.12469  0.61640  1.0000
  N   N2        1.0  0.88567  0.12462  0.11862  1.0000
  N   N3        1.0  0.28639  0.59973  0.60594  1.0000
  N   N4        1.0  0.31497  0.59887  0.10598  1.0000
  N   N5        1.0  0.29676  0.51203  0.67778  1.0000
  N   N6        1.0  0.21761  0.51129  0.17780  1.0000
  N   N7        1.0  0.23947  0.57812  0.78930  1.0000
  N   N8        1.0  0.34189  0.57728  0.28942  1.0000
  N   N9        1.0  0.18688  0.70656  0.79124  1.0000
  N   N10       1.0  0.52268  0.70539  0.29137  1.0000
