data_image0
_chemical_formula_structural       Cu2H4C24Br4N8
_chemical_formula_sum              "Cu2 H4 C24 Br4 N8"
_cell_length_a       3.86434
_cell_length_b       11.252
_cell_length_c       13.5172
_cell_angle_alpha    90.5402
_cell_angle_beta     89.9319
_cell_angle_gamma    99.9651

_space_group_name_H-M_alt    "P 1"
_space_group_IT_number       1

loop_
  _space_group_symop_operation_xyz
  'x, y, z'

loop_
  _atom_site_type_symbol
  _atom_site_label
  _atom_site_symmetry_multiplicity
  _atom_site_fract_x
  _atom_site_fract_y
  _atom_site_fract_z
  _atom_site_occupancy
  Cu  Cu1       1.0  0.91867  0.99995  0.75002  1.0000
  Cu  Cu2       1.0  0.08134  0.00005  0.24997  1.0000
  H   H1        1.0  0.18131  0.38837  0.85997  1.0000
  H   H2        1.0  0.79119  0.61151  0.63985  1.0000
  H   H3        1.0  0.81869  0.61163  0.14003  1.0000
  H   H4        1.0  0.20882  0.38849  0.36015  1.0000
  C   C1        1.0  0.66717  0.83894  0.92247  1.0000
  C   C2        1.0  0.82780  0.16091  0.57754  1.0000
  C   C3        1.0  0.33285  0.16106  0.07753  1.0000
  C   C4        1.0  0.17221  0.83909  0.42246  1.0000
  C   C5        1.0  0.65680  0.76105  0.00270  1.0000
  C   C6        1.0  0.89401  0.23869  0.49721  1.0000
  C   C7        1.0  0.34320  0.23895  0.99730  1.0000
  C   C8        1.0  0.10599  0.76131  0.50279  1.0000
  C   C9        1.0  0.57619  0.63034  0.99806  1.0000
  C   C10       1.0  0.94500  0.36962  0.50186  1.0000
  C   C11       1.0  0.42382  0.36966  0.00194  1.0000
  C   C12       1.0  0.05500  0.63038  0.49814  1.0000
  C   C13       1.0  0.40240  0.56105  0.91870  1.0000
  C   C14       1.0  0.83977  0.43882  0.58107  1.0000
  C   C15       1.0  0.59759  0.43895  0.08131  1.0000
  C   C16       1.0  0.16023  0.56118  0.41893  1.0000
  C   C17       1.0  0.32863  0.43648  0.92118  1.0000
  C   C18       1.0  0.89122  0.56348  0.57867  1.0000
  C   C19       1.0  0.67137  0.56352  0.07882  1.0000
  C   C20       1.0  0.10878  0.43652  0.42133  1.0000
  C   C21       1.0  0.74228  0.82126  0.09274  1.0000
  C   C22       1.0  0.91917  0.17856  0.40718  1.0000
  C   C23       1.0  0.25773  0.17874  0.90726  1.0000
  C   C24       1.0  0.08084  0.82144  0.59282  1.0000
  Br  Br1       1.0  0.24743  0.63632  0.80619  1.0000
  Br  Br2       1.0  0.60927  0.36342  0.69377  1.0000
  Br  Br3       1.0  0.75252  0.36368  0.19382  1.0000
  Br  Br4       1.0  0.39070  0.63658  0.30622  1.0000
  N   N1        1.0  0.68339  0.91128  0.85964  1.0000
  N   N2        1.0  0.77261  0.08875  0.64056  1.0000
  N   N3        1.0  0.31663  0.08872  0.14036  1.0000
  N   N4        1.0  0.22740  0.91125  0.35944  1.0000
  N   N5        1.0  0.79758  0.87665  0.16696  1.0000
  N   N6        1.0  0.91985  0.12324  0.33290  1.0000
  N   N7        1.0  0.20242  0.12335  0.83304  1.0000
  N   N8        1.0  0.08017  0.87676  0.66709  1.0000
