data_image0
_chemical_formula_structural       V4Co2H18C10N4O14
_chemical_formula_sum              "V4 Co2 H18 C10 N4 O14"
_cell_length_a       5.87486
_cell_length_b       7.67252
_cell_length_c       11.8166
_cell_angle_alpha    97.1025
_cell_angle_beta     102.837
_cell_angle_gamma    99.3233

_space_group_name_H-M_alt    "P 1"
_space_group_IT_number       1

loop_
  _space_group_symop_operation_xyz
  'x, y, z'

loop_
  _atom_site_type_symbol
  _atom_site_label
  _atom_site_symmetry_multiplicity
  _atom_site_fract_x
  _atom_site_fract_y
  _atom_site_fract_z
  _atom_site_occupancy
  V   V1        1.0  0.71647  0.21793  0.29818  1.0000
  V   V2        1.0  0.27629  0.79686  0.69483  1.0000
  V   V3        1.0  0.77136  0.92760  0.59635  1.0000
  V   V4        1.0  0.21877  0.07763  0.39880  1.0000
  Co  Co1       1.0  0.00719  0.64781  0.42335  1.0000
  Co  Co2       1.0  0.99556  0.35660  0.57637  1.0000
  H   H1        1.0  0.52814  0.74322  0.28493  1.0000
  H   H2        1.0  0.49175  0.26761  0.72622  1.0000
  H   H3        1.0  0.47152  0.77559  0.04838  1.0000
  H   H4        1.0  0.53489  0.22194  0.96073  1.0000
  H   H5        1.0  0.13606  0.63402  0.17766  1.0000
  H   H6        1.0  0.87259  0.36192  0.82692  1.0000
  H   H7        1.0  0.72969  0.65281  0.89693  1.0000
  H   H8        1.0  0.26246  0.33560  0.10847  1.0000
  H   H9        1.0  0.03949  0.68787  0.96582  1.0000
  H   H10       1.0  0.95537  0.30020  0.03506  1.0000
  H   H11       1.0  0.92719  0.93960  0.86526  1.0000
  H   H12       1.0  0.06920  0.04740  0.13506  1.0000
  H   H13       1.0  0.72694  0.97287  0.95329  1.0000
  H   H14       1.0  0.26974  0.01661  0.04681  1.0000
  H   H15       1.0  0.44699  0.61667  0.41463  1.0000
  H   H16       1.0  0.55285  0.37979  0.58117  1.0000
  H   H17       1.0  0.28814  0.43229  0.41308  1.0000
  H   H18       1.0  0.70746  0.56671  0.58145  1.0000
  C   C1        1.0  0.64276  0.72049  0.22714  1.0000
  C   C2        1.0  0.37207  0.28416  0.78229  1.0000
  C   C3        1.0  0.61377  0.73987  0.11118  1.0000
  C   C4        1.0  0.39498  0.25795  0.89676  1.0000
  C   C5        1.0  0.96421  0.66874  0.17603  1.0000
  C   C6        1.0  0.04613  0.32949  0.82955  1.0000
  C   C7        1.0  0.87389  0.73542  0.96828  1.0000
  C   C8        1.0  0.12275  0.25416  0.03469  1.0000
  C   C9        1.0  0.89824  0.93221  0.95330  1.0000
  C   C10       1.0  0.09828  0.05658  0.04731  1.0000
  N   N1        1.0  0.86124  0.67511  0.26638  1.0000
  N   N2        1.0  0.15422  0.32919  0.74125  1.0000
  N   N3        1.0  0.81804  0.70733  0.08042  1.0000
  N   N4        1.0  0.18669  0.28685  0.92518  1.0000
  O   O1        1.0  0.84084  0.40721  0.40449  1.0000
  O   O2        1.0  0.15505  0.61217  0.58256  1.0000
  O   O3        1.0  0.29385  0.53593  0.37067  1.0000
  O   O4        1.0  0.70734  0.46138  0.62260  1.0000
  O   O5        1.0  0.18645  0.88243  0.45221  1.0000
  O   O6        1.0  0.80089  0.11468  0.53526  1.0000
  O   O7        1.0  0.71560  0.74090  0.49401  1.0000
  O   O8        1.0  0.27653  0.25998  0.50626  1.0000
  O   O9        1.0  0.66417  0.27478  0.16900  1.0000
  O   O10       1.0  0.33109  0.72769  0.82003  1.0000
  O   O11       1.0  0.94807  0.08706  0.30114  1.0000
  O   O12       1.0  0.04454  0.92357  0.69618  1.0000
  O   O13       1.0  0.44157  0.09443  0.31816  1.0000
  O   O14       1.0  0.55063  0.92310  0.67791  1.0000
