data_image0
_chemical_formula_structural       Mn2V4H18C10N4O14
_chemical_formula_sum              "Mn2 V4 H18 C10 N4 O14"
_cell_length_a       5.86016
_cell_length_b       7.83949
_cell_length_c       11.9121
_cell_angle_alpha    100.352
_cell_angle_beta     101.516
_cell_angle_gamma    98.4406

_space_group_name_H-M_alt    "P 1"
_space_group_IT_number       1

loop_
  _space_group_symop_operation_xyz
  'x, y, z'

loop_
  _atom_site_type_symbol
  _atom_site_label
  _atom_site_symmetry_multiplicity
  _atom_site_fract_x
  _atom_site_fract_y
  _atom_site_fract_z
  _atom_site_occupancy
  Mn  Mn1       1.0  0.49769  0.14701  0.92003  1.0000
  Mn  Mn2       1.0  0.50240  0.85289  0.07990  1.0000
  V   V1        1.0  0.26652  0.42635  0.10054  1.0000
  V   V2        1.0  0.73358  0.57376  0.89948  1.0000
  V   V3        1.0  0.22528  0.69640  0.79552  1.0000
  V   V4        1.0  0.77466  0.30351  0.20445  1.0000
  H   H1        1.0  0.61749  0.13827  0.65611  1.0000
  H   H2        1.0  0.38250  0.86170  0.34393  1.0000
  H   H3        1.0  0.00053  0.22813  0.76964  1.0000
  H   H4        1.0  0.99947  0.77186  0.23037  1.0000
  H   H5        1.0  0.95691  0.28062  0.54056  1.0000
  H   H6        1.0  0.04312  0.71940  0.45945  1.0000
  H   H7        1.0  0.22102  0.16895  0.38487  1.0000
  H   H8        1.0  0.77902  0.83108  0.61516  1.0000
  H   H9        1.0  0.52793  0.19756  0.45197  1.0000
  H   H10       1.0  0.47209  0.80243  0.54804  1.0000
  H   H11       1.0  0.22984  0.48816  0.46478  1.0000
  H   H12       1.0  0.77021  0.51187  0.53525  1.0000
  H   H13       1.0  0.41354  0.45103  0.36555  1.0000
  H   H14       1.0  0.58653  0.54896  0.63449  1.0000
  H   H15       1.0  0.79729  0.93044  0.91210  1.0000
  H   H16       1.0  0.20258  0.06960  0.08788  1.0000
  H   H17       1.0  0.95159  0.11337  0.91566  1.0000
  H   H18       1.0  0.04831  0.88668  0.08435  1.0000
  C   C1        1.0  0.44383  0.16926  0.65791  1.0000
  C   C2        1.0  0.55615  0.83072  0.34209  1.0000
  C   C3        1.0  0.11982  0.21340  0.71163  1.0000
  C   C4        1.0  0.88016  0.78660  0.28837  1.0000
  C   C5        1.0  0.09632  0.24262  0.59997  1.0000
  C   C6        1.0  0.90369  0.75741  0.40004  1.0000
  C   C7        1.0  0.36398  0.24663  0.45843  1.0000
  C   C8        1.0  0.63605  0.75338  0.54160  1.0000
  C   C9        1.0  0.39449  0.44213  0.45419  1.0000
  C   C10       1.0  0.60554  0.55786  0.54583  1.0000
  N   N1        1.0  0.33709  0.16718  0.74701  1.0000
  N   N2        1.0  0.66287  0.83280  0.25298  1.0000
  N   N3        1.0  0.30336  0.21440  0.56736  1.0000
  N   N4        1.0  0.69664  0.78560  0.43265  1.0000
  O   O1        1.0  0.33759  0.88333  0.90506  1.0000
  O   O2        1.0  0.66230  0.11650  0.09496  1.0000
  O   O3        1.0  0.79836  0.03251  0.87383  1.0000
  O   O4        1.0  0.20164  0.96747  0.12609  1.0000
  O   O5        1.0  0.71482  0.39027  0.95437  1.0000
  O   O6        1.0  0.28528  0.60981  0.04561  1.0000
  O   O7        1.0  0.22208  0.23765  0.99376  1.0000
  O   O8        1.0  0.77780  0.76246  0.00629  1.0000
  O   O9        1.0  0.05285  0.41729  0.18658  1.0000
  O   O10       1.0  0.94712  0.58269  0.81340  1.0000
  O   O11       1.0  0.45798  0.56925  0.80421  1.0000
  O   O12       1.0  0.54210  0.43075  0.19574  1.0000
  O   O13       1.0  0.18252  0.74870  0.66828  1.0000
  O   O14       1.0  0.81747  0.25130  0.33171  1.0000
