data_image0
_chemical_formula_structural       Cu4H24C36N16
_chemical_formula_sum              "Cu4 H24 C36 N16"
_cell_length_a       6.65831
_cell_length_b       9.36643
_cell_length_c       13.8835
_cell_angle_alpha    108.364
_cell_angle_beta     92.5712
_cell_angle_gamma    95.3984

_space_group_name_H-M_alt    "P 1"
_space_group_IT_number       1

loop_
  _space_group_symop_operation_xyz
  'x, y, z'

loop_
  _atom_site_type_symbol
  _atom_site_label
  _atom_site_symmetry_multiplicity
  _atom_site_fract_x
  _atom_site_fract_y
  _atom_site_fract_z
  _atom_site_occupancy
  Cu  Cu1       1.0  0.31745  0.54363  0.49374  1.0000
  Cu  Cu2       1.0  0.68252  0.45637  0.50627  1.0000
  Cu  Cu3       1.0  0.32123  0.04273  0.49311  1.0000
  Cu  Cu4       1.0  0.67876  0.95727  0.50689  1.0000
  H   H1        1.0  0.39393  0.87221  0.67133  1.0000
  H   H2        1.0  0.60607  0.12779  0.32867  1.0000
  H   H3        1.0  0.98715  0.49257  0.65651  1.0000
  H   H4        1.0  0.01284  0.50744  0.34349  1.0000
  H   H5        1.0  0.65823  0.58403  0.71623  1.0000
  H   H6        1.0  0.34178  0.41598  0.28378  1.0000
  H   H7        1.0  0.08135  0.87172  0.95885  1.0000
  H   H8        1.0  0.91866  0.12830  0.04115  1.0000
  H   H9        1.0  0.39482  0.59671  0.83934  1.0000
  H   H10       1.0  0.60519  0.40328  0.16067  1.0000
  H   H11       1.0  0.81449  0.89431  0.08008  1.0000
  H   H12       1.0  0.18552  0.10569  0.91992  1.0000
  H   H13       1.0  0.50725  0.99501  0.12248  1.0000
  H   H14       1.0  0.49277  0.00498  0.87752  1.0000
  H   H15       1.0  0.30887  0.52020  0.97731  1.0000
  H   H16       1.0  0.69113  0.47980  0.02269  1.0000
  H   H17       1.0  0.23957  0.01176  0.24098  1.0000
  H   H18       1.0  0.76044  0.98825  0.75901  1.0000
  H   H19       1.0  0.04399  0.53556  0.09851  1.0000
  H   H20       1.0  0.95602  0.46444  0.90150  1.0000
  H   H21       1.0  0.02634  0.00360  0.35479  1.0000
  H   H22       1.0  0.97365  0.99642  0.64521  1.0000
  H   H23       1.0  0.57074  0.64348  0.31438  1.0000
  H   H24       1.0  0.42925  0.35654  0.68562  1.0000
  C   C1        1.0  0.30888  0.33529  0.45022  1.0000
  C   C2        1.0  0.69107  0.66470  0.54977  1.0000
  C   C3        1.0  0.27557  0.79958  0.68982  1.0000
  C   C4        1.0  0.72442  0.20043  0.31018  1.0000
  C   C5        1.0  0.07040  0.60472  0.67895  1.0000
  C   C6        1.0  0.92959  0.39530  0.32104  1.0000
  C   C7        1.0  0.88494  0.72640  0.83116  1.0000
  C   C8        1.0  0.11507  0.27361  0.16885  1.0000
  C   C9        1.0  0.69267  0.64789  0.79674  1.0000
  C   C10       1.0  0.30734  0.35211  0.20326  1.0000
  C   C11       1.0  0.92977  0.81394  0.93305  1.0000
  C   C12       1.0  0.07024  0.18607  0.06695  1.0000
  C   C13       1.0  0.54527  0.65724  0.86574  1.0000
  C   C14       1.0  0.45474  0.34275  0.13426  1.0000
  C   C15       1.0  0.77971  0.82508  0.00069  1.0000
  C   C16       1.0  0.22030  0.17492  0.99932  1.0000
  C   C17       1.0  0.58558  0.74656  0.96844  1.0000
  C   C18       1.0  0.41443  0.25343  0.03155  1.0000
  C   C19       1.0  0.42785  0.75643  0.04085  1.0000
  C   C20       1.0  0.57216  0.24356  0.95915  1.0000
  C   C21       1.0  0.40693  0.89345  0.11708  1.0000
  C   C22       1.0  0.59308  0.10654  0.88292  1.0000
  C   C23       1.0  0.29439  0.62811  0.03499  1.0000
  C   C24       1.0  0.70562  0.37189  0.96501  1.0000
  C   C25       1.0  0.25552  0.90339  0.18411  1.0000
  C   C26       1.0  0.74449  0.09661  0.81588  1.0000
  C   C27       1.0  0.14502  0.63570  0.10257  1.0000
  C   C28       1.0  0.85499  0.36430  0.89743  1.0000
  C   C29       1.0  0.12387  0.77382  0.17612  1.0000
  C   C30       1.0  0.87614  0.22618  0.82388  1.0000
  C   C31       1.0  0.93196  0.89603  0.32546  1.0000
  C   C32       1.0  0.06805  0.10397  0.67454  1.0000
  C   C33       1.0  0.70361  0.71030  0.30252  1.0000
  C   C34       1.0  0.29640  0.28972  0.69747  1.0000
  C   C35       1.0  0.68995  0.16611  0.55271  1.0000
  C   C36       1.0  0.31004  0.83390  0.44728  1.0000
  N   N1        1.0  0.28610  0.70158  0.43152  1.0000
  N   N2        1.0  0.71388  0.29842  0.56848  1.0000
  N   N3        1.0  0.22163  0.65171  0.63213  1.0000
  N   N4        1.0  0.77836  0.34830  0.36787  1.0000
  N   N5        1.0  0.28556  0.20277  0.43359  1.0000
  N   N6        1.0  0.71439  0.79722  0.56640  1.0000
  N   N7        1.0  0.16747  0.84632  0.76943  1.0000
  N   N8        1.0  0.83253  0.15368  0.23057  1.0000
  N   N9        1.0  0.03613  0.72062  0.76141  1.0000
  N   N10       1.0  0.96387  0.27939  0.23860  1.0000
  N   N11       1.0  0.96501  0.78170  0.24160  1.0000
  N   N12       1.0  0.03499  0.21830  0.75840  1.0000
  N   N13       1.0  0.81850  0.66192  0.22604  1.0000
  N   N14       1.0  0.18150  0.33809  0.77396  1.0000
  N   N15       1.0  0.76787  0.85348  0.36588  1.0000
  N   N16       1.0  0.23213  0.14653  0.63412  1.0000
