data_image0
_chemical_formula_structural       Cu2H32C26N4O10
_chemical_formula_sum              "Cu2 H32 C26 N4 O10"
_cell_length_a       7.96504
_cell_length_b       8.68824
_cell_length_c       10.7486
_cell_angle_alpha    98.9127
_cell_angle_beta     96.2749
_cell_angle_gamma    94.4998

_space_group_name_H-M_alt    "P 1"
_space_group_IT_number       1

loop_
  _space_group_symop_operation_xyz
  'x, y, z'

loop_
  _atom_site_type_symbol
  _atom_site_label
  _atom_site_symmetry_multiplicity
  _atom_site_fract_x
  _atom_site_fract_y
  _atom_site_fract_z
  _atom_site_occupancy
  Cu  Cu1       1.0  0.46093  0.47572  0.11085  1.0000
  Cu  Cu2       1.0  0.53907  0.52426  0.88916  1.0000
  H   H1        1.0  0.53122  0.21431  0.69173  1.0000
  H   H2        1.0  0.46877  0.78569  0.30827  1.0000
  H   H3        1.0  0.63501  0.31590  0.31338  1.0000
  H   H4        1.0  0.36498  0.68410  0.68661  1.0000
  H   H5        1.0  0.29743  0.23031  0.58805  1.0000
  H   H6        1.0  0.70257  0.76970  0.41195  1.0000
  H   H7        1.0  0.08624  0.37393  0.47459  1.0000
  H   H8        1.0  0.91375  0.62607  0.52542  1.0000
  H   H9        1.0  0.16623  0.49132  0.28737  1.0000
  H   H10       1.0  0.83375  0.50867  0.71263  1.0000
  H   H11       1.0  0.80660  0.00778  0.64262  1.0000
  H   H12       1.0  0.19338  0.99221  0.35737  1.0000
  H   H13       1.0  0.69220  0.02598  0.77793  1.0000
  H   H14       1.0  0.30779  0.97401  0.22206  1.0000
  H   H15       1.0  0.84687  0.17891  0.76143  1.0000
  H   H16       1.0  0.15313  0.82108  0.23857  1.0000
  H   H17       1.0  0.02706  0.75907  0.03587  1.0000
  H   H18       1.0  0.97295  0.24092  0.96411  1.0000
  H   H19       1.0  0.96021  0.61251  0.90493  1.0000
  H   H20       1.0  0.03980  0.38749  0.09506  1.0000
  H   H21       1.0  0.11425  0.77276  0.76485  1.0000
  H   H22       1.0  0.88574  0.22725  0.23513  1.0000
  H   H23       1.0  0.95395  0.86997  0.83565  1.0000
  H   H24       1.0  0.04606  0.13006  0.16437  1.0000
  H   H25       1.0  0.16780  0.02394  0.00430  1.0000
  H   H26       1.0  0.83219  0.97607  0.99569  1.0000
  H   H27       1.0  0.33082  0.91976  0.94459  1.0000
  H   H28       1.0  0.66920  0.08026  0.05543  1.0000
  H   H29       1.0  0.29480  0.02982  0.74489  1.0000
  H   H30       1.0  0.70523  0.97020  0.25510  1.0000
  H   H31       1.0  0.11591  0.11808  0.78933  1.0000
  H   H32       1.0  0.88411  0.88192  0.21067  1.0000
  C   C1        1.0  0.51556  0.32887  0.35275  1.0000
  C   C2        1.0  0.48443  0.67113  0.64725  1.0000
  C   C3        1.0  0.48601  0.26470  0.46084  1.0000
  C   C4        1.0  0.51398  0.73529  0.53916  1.0000
  C   C5        1.0  0.32877  0.28068  0.50587  1.0000
  C   C6        1.0  0.67123  0.71933  0.49413  1.0000
  C   C7        1.0  0.21072  0.36153  0.44307  1.0000
  C   C8        1.0  0.78927  0.63847  0.55693  1.0000
  C   C9        1.0  0.25334  0.42467  0.33798  1.0000
  C   C10       1.0  0.74665  0.57533  0.66202  1.0000
  C   C11       1.0  0.62608  0.18220  0.51894  1.0000
  C   C12       1.0  0.37392  0.81781  0.48106  1.0000
  C   C13       1.0  0.74804  0.08925  0.70918  1.0000
  C   C14       1.0  0.25195  0.91075  0.29082  1.0000
  C   C15       1.0  0.22255  0.62682  0.96834  1.0000
  C   C16       1.0  0.77745  0.37318  0.03165  1.0000
  C   C17       1.0  0.06199  0.70603  0.94397  1.0000
  C   C18       1.0  0.93802  0.29397  0.05602  1.0000
  C   C19       1.0  0.07884  0.82723  0.85636  1.0000
  C   C20       1.0  0.92117  0.17278  0.14363  1.0000
  C   C21       1.0  0.20895  0.96425  0.91663  1.0000
  C   C22       1.0  0.79106  0.03575  0.08337  1.0000
  C   C23       1.0  0.23820  0.08218  0.82836  1.0000
  C   C24       1.0  0.76182  0.91782  0.17163  1.0000
  C   C25       1.0  0.34279  0.23277  0.89194  1.0000
  C   C26       1.0  0.65720  0.76723  0.10807  1.0000
  N   N1        1.0  0.40289  0.40778  0.29254  1.0000
  N   N2        1.0  0.59710  0.59222  0.70746  1.0000
  N   N3        1.0  0.61718  0.16025  0.63990  1.0000
  N   N4        1.0  0.38281  0.83975  0.36010  1.0000
  O   O1        1.0  0.25114  0.58133  0.07551  1.0000
  O   O2        1.0  0.74886  0.41866  0.92449  1.0000
  O   O3        1.0  0.31571  0.61058  0.87918  1.0000
  O   O4        1.0  0.68429  0.38941  0.12082  1.0000
  O   O5        1.0  0.34624  0.27240  0.01090  1.0000
  O   O6        1.0  0.65376  0.72758  0.98911  1.0000
  O   O7        1.0  0.41661  0.31189  0.81867  1.0000
  O   O8        1.0  0.58339  0.68811  0.18134  1.0000
  O   O9        1.0  0.74255  0.13869  0.45712  1.0000
  O   O10       1.0  0.25747  0.86132  0.54289  1.0000
