data_image0
_chemical_formula_structural       Mn2H16C20N28
_chemical_formula_sum              "Mn2 H16 C20 N28"
_cell_length_a       8.17396
_cell_length_b       8.26673
_cell_length_c       11.885
_cell_angle_alpha    82.9714
_cell_angle_beta     69.9035
_cell_angle_gamma    81.4783

_space_group_name_H-M_alt    "P 1"
_space_group_IT_number       1

loop_
  _space_group_symop_operation_xyz
  'x, y, z'

loop_
  _atom_site_type_symbol
  _atom_site_label
  _atom_site_symmetry_multiplicity
  _atom_site_fract_x
  _atom_site_fract_y
  _atom_site_fract_z
  _atom_site_occupancy
  Mn  Mn1       1.0  0.02960  0.28897  0.47953  1.0000
  Mn  Mn2       1.0  0.97165  0.68995  0.51787  1.0000
  H   H1        1.0  0.40613  0.28598  0.45418  1.0000
  H   H2        1.0  0.57383  0.72058  0.55426  1.0000
  H   H3        1.0  0.69317  0.30176  0.29079  1.0000
  H   H4        1.0  0.28529  0.70555  0.71810  1.0000
  H   H5        1.0  0.41088  0.35192  0.03733  1.0000
  H   H6        1.0  0.56973  0.64187  0.97111  1.0000
  H   H7        1.0  0.13880  0.32976  0.21013  1.0000
  H   H8        1.0  0.84341  0.66334  0.79681  1.0000
  H   H9        1.0  0.65707  0.29214  0.50256  1.0000
  H   H10       1.0  0.35526  0.71354  0.48846  1.0000
  H   H11       1.0  0.39159  0.18433  0.65055  1.0000
  H   H12       1.0  0.62054  0.83120  0.34423  1.0000
  H   H13       1.0  0.66532  0.11219  0.90976  1.0000
  H   H14       1.0  0.35497  0.90024  0.08019  1.0000
  H   H15       1.0  0.92148  0.21577  0.75004  1.0000
  H   H16       1.0  0.10079  0.78281  0.23687  1.0000
  C   C1        1.0  0.41345  0.30091  0.36049  1.0000
  C   C2        1.0  0.56647  0.70191  0.64811  1.0000
  C   C3        1.0  0.57283  0.31006  0.26913  1.0000
  C   C4        1.0  0.40644  0.69355  0.73926  1.0000
  C   C5        1.0  0.57569  0.33082  0.14926  1.0000
  C   C6        1.0  0.40527  0.66965  0.85870  1.0000
  C   C7        1.0  0.41586  0.33870  0.12835  1.0000
  C   C8        1.0  0.56507  0.65836  0.88005  1.0000
  C   C9        1.0  0.26297  0.32720  0.22519  1.0000
  C   C10       1.0  0.71797  0.66910  0.78268  1.0000
  C   C11       1.0  0.65378  0.24950  0.59348  1.0000
  C   C12       1.0  0.36143  0.75673  0.39690  1.0000
  C   C13       1.0  0.50586  0.19076  0.67652  1.0000
  C   C14       1.0  0.50876  0.82058  0.31645  1.0000
  C   C15       1.0  0.50767  0.13854  0.79315  1.0000
  C   C16       1.0  0.50837  0.87178  0.19947  1.0000
  C   C17       1.0  0.65876  0.15084  0.82038  1.0000
  C   C18       1.0  0.35977  0.85867  0.16962  1.0000
  C   C19       1.0  0.80179  0.20913  0.73107  1.0000
  C   C20       1.0  0.21854  0.79390  0.25709  1.0000
  N   N1        1.0  0.10462  0.47274  0.58162  1.0000
  N   N2        1.0  0.91041  0.51258  0.41971  1.0000
  N   N3        1.0  0.12170  0.44166  0.67918  1.0000
  N   N4        1.0  0.88505  0.54617  0.32456  1.0000
  N   N5        1.0  0.14170  0.41322  0.77256  1.0000
  N   N6        1.0  0.85615  0.58178  0.23466  1.0000
  N   N7        1.0  0.95803  0.15099  0.38242  1.0000
  N   N8        1.0  0.05489  0.83779  0.62777  1.0000
  N   N9        1.0  0.89725  0.02387  0.40895  1.0000
  N   N10       1.0  0.10123  0.96935  0.59244  1.0000
  N   N11       1.0  0.84105  0.89503  0.43091  1.0000
  N   N12       1.0  0.15268  0.09937  0.55525  1.0000
  N   N13       1.0  0.25766  0.30929  0.34149  1.0000
  N   N14       1.0  0.72085  0.68925  0.66779  1.0000
  N   N15       1.0  0.72708  0.34268  0.04830  1.0000
  N   N16       1.0  0.25407  0.65802  0.95962  1.0000
  N   N17       1.0  0.87345  0.32737  0.05957  1.0000
  N   N18       1.0  0.10828  0.67094  0.94723  1.0000
  N   N19       1.0  0.01773  0.31290  0.05378  1.0000
  N   N20       1.0  0.96487  0.68160  0.95229  1.0000
  N   N21       1.0  0.80495  0.25481  0.61647  1.0000
  N   N22       1.0  0.21687  0.74433  0.36976  1.0000
  N   N23       1.0  0.36702  0.07529  0.88524  1.0000
  N   N24       1.0  0.64958  0.93622  0.10862  1.0000
  N   N25       1.0  0.23109  0.06057  0.86631  1.0000
  N   N26       1.0  0.78668  0.94308  0.12885  1.0000
  N   N27       1.0  0.09722  0.03795  0.86361  1.0000
  N   N28       1.0  0.92159  0.95854  0.13290  1.0000
