data_image0
_chemical_formula_structural       Zn2H20C32Cl8O12
_chemical_formula_sum              "Zn2 H20 C32 Cl8 O12"
_cell_length_a       4.72984
_cell_length_b       10.4025
_cell_length_c       18.7989
_cell_angle_alpha    80.0736
_cell_angle_beta     90.1987
_cell_angle_gamma    83.1201

_space_group_name_H-M_alt    "P 1"
_space_group_IT_number       1

loop_
  _space_group_symop_operation_xyz
  'x, y, z'

loop_
  _atom_site_type_symbol
  _atom_site_label
  _atom_site_symmetry_multiplicity
  _atom_site_fract_x
  _atom_site_fract_y
  _atom_site_fract_z
  _atom_site_occupancy
  Zn  Zn1       1.0  0.67424  0.53526  0.41236  1.0000
  Zn  Zn2       1.0  0.32576  0.46474  0.58764  1.0000
  H   H1        1.0  0.01198  0.87350  0.49047  1.0000
  H   H2        1.0  0.98800  0.12650  0.50953  1.0000
  H   H3        1.0  0.32405  0.89577  0.53818  1.0000
  H   H4        1.0  0.67594  0.10423  0.46182  1.0000
  H   H5        1.0  0.19317  0.17451  0.20021  1.0000
  H   H6        1.0  0.80683  0.82549  0.79979  1.0000
  H   H7        1.0  0.96831  0.80394  0.38791  1.0000
  H   H8        1.0  0.03169  0.19606  0.61208  1.0000
  H   H9        1.0  0.75368  0.83417  0.26589  1.0000
  H   H10       1.0  0.24632  0.16584  0.73410  1.0000
  H   H11       1.0  0.93050  0.41510  0.27635  1.0000
  H   H12       1.0  0.06950  0.58490  0.72365  1.0000
  H   H13       1.0  0.88858  0.58274  0.23739  1.0000
  H   H14       1.0  0.11143  0.41726  0.76261  1.0000
  H   H15       1.0  0.35135  0.88534  0.10174  1.0000
  H   H16       1.0  0.64865  0.11466  0.89827  1.0000
  H   H17       1.0  0.83842  0.56251  0.02459  1.0000
  H   H18       1.0  0.16159  0.43749  0.97541  1.0000
  H   H19       1.0  0.13199  0.73007  0.19186  1.0000
  H   H20       1.0  0.86801  0.26993  0.80814  1.0000
  C   C1        1.0  0.24558  0.86844  0.48841  1.0000
  C   C2        1.0  0.75442  0.13156  0.51159  1.0000
  C   C3        1.0  0.36599  0.72561  0.48907  1.0000
  C   C4        1.0  0.63401  0.27439  0.51093  1.0000
  C   C5        1.0  0.26365  0.07603  0.31043  1.0000
  C   C6        1.0  0.73634  0.92397  0.68957  1.0000
  C   C7        1.0  0.20608  0.97108  0.36433  1.0000
  C   C8        1.0  0.79392  0.02892  0.63567  1.0000
  C   C9        1.0  0.14616  0.09250  0.24096  1.0000
  C   C10       1.0  0.85383  0.90750  0.75903  1.0000
  C   C11       1.0  0.02235  0.88449  0.34739  1.0000
  C   C12       1.0  0.97764  0.11552  0.65261  1.0000
  C   C13       1.0  0.96496  0.00391  0.22536  1.0000
  C   C14       1.0  0.03503  0.99610  0.77463  1.0000
  C   C15       1.0  0.90081  0.90077  0.27825  1.0000
  C   C16       1.0  0.09918  0.09923  0.72175  1.0000
  C   C17       1.0  0.20504  0.52750  0.32421  1.0000
  C   C18       1.0  0.79496  0.47250  0.67578  1.0000
  C   C19       1.0  0.04902  0.49905  0.25863  1.0000
  C   C20       1.0  0.95098  0.50095  0.74137  1.0000
  C   C21       1.0  0.35320  0.55585  0.15916  1.0000
  C   C22       1.0  0.64681  0.44415  0.84084  1.0000
  C   C23       1.0  0.55657  0.51046  0.11166  1.0000
  C   C24       1.0  0.44344  0.48954  0.88834  1.0000
  C   C25       1.0  0.60816  0.73362  0.05766  1.0000
  C   C26       1.0  0.39186  0.26638  0.94234  1.0000
  C   C27       1.0  0.41014  0.78032  0.10466  1.0000
  C   C28       1.0  0.58987  0.21968  0.89535  1.0000
  C   C29       1.0  0.68289  0.59875  0.06111  1.0000
  C   C30       1.0  0.31712  0.40125  0.93889  1.0000
  C   C31       1.0  0.28518  0.69140  0.15545  1.0000
  C   C32       1.0  0.71482  0.30860  0.84455  1.0000
  Cl  Cl1       1.0  0.47662  0.18907  0.33099  1.0000
  Cl  Cl2       1.0  0.52340  0.81092  0.66901  1.0000
  Cl  Cl3       1.0  0.81555  0.02299  0.13955  1.0000
  Cl  Cl4       1.0  0.18445  0.97702  0.86045  1.0000
  Cl  Cl5       1.0  0.65063  0.34382  0.11652  1.0000
  Cl  Cl6       1.0  0.34937  0.65619  0.88348  1.0000
  Cl  Cl7       1.0  0.76609  0.84169  0.99417  1.0000
  Cl  Cl8       1.0  0.23391  0.15831  0.00583  1.0000
  O   O1        1.0  0.56747  0.69996  0.44729  1.0000
  O   O2        1.0  0.43253  0.30003  0.55273  1.0000
  O   O3        1.0  0.33366  0.96184  0.43092  1.0000
  O   O4        1.0  0.66633  0.03816  0.56908  1.0000
  O   O5        1.0  0.47401  0.52482  0.32151  1.0000
  O   O6        1.0  0.52599  0.47518  0.67849  1.0000
  O   O7        1.0  0.23401  0.46117  0.20490  1.0000
  O   O8        1.0  0.76599  0.53882  0.79510  1.0000
  O   O9        1.0  0.06914  0.55128  0.37982  1.0000
  O   O10       1.0  0.93087  0.44871  0.62018  1.0000
  O   O11       1.0  0.24946  0.64441  0.53435  1.0000
  O   O12       1.0  0.75050  0.35559  0.46566  1.0000
