data_image0
_chemical_formula_structural       K4H20C32N8O24
_chemical_formula_sum              "K4 H20 C32 N8 O24"
_cell_length_a       7.11814
_cell_length_b       8.06973
_cell_length_c       17.0916
_cell_angle_alpha    90.0001
_cell_angle_beta     90
_cell_angle_gamma    90.5565

_space_group_name_H-M_alt    "P 1"
_space_group_IT_number       1

loop_
  _space_group_symop_operation_xyz
  'x, y, z'

loop_
  _atom_site_type_symbol
  _atom_site_label
  _atom_site_symmetry_multiplicity
  _atom_site_fract_x
  _atom_site_fract_y
  _atom_site_fract_z
  _atom_site_occupancy
  K   K1        1.0  0.54175  0.31075  0.70512  1.0000
  K   K2        1.0  0.95825  0.68925  0.20512  1.0000
  K   K3        1.0  0.45825  0.68926  0.29488  1.0000
  K   K4        1.0  0.04175  0.31075  0.79488  1.0000
  H   H1        1.0  0.78486  0.11321  0.97963  1.0000
  H   H2        1.0  0.71514  0.88679  0.47963  1.0000
  H   H3        1.0  0.21514  0.88679  0.02037  1.0000
  H   H4        1.0  0.28486  0.11321  0.52037  1.0000
  H   H5        1.0  0.09807  0.32930  0.97394  1.0000
  H   H6        1.0  0.40193  0.67070  0.47394  1.0000
  H   H7        1.0  0.90192  0.67070  0.02606  1.0000
  H   H8        1.0  0.59807  0.32930  0.52606  1.0000
  H   H9        1.0  0.26884  0.46238  0.93046  1.0000
  H   H10       1.0  0.23116  0.53763  0.43046  1.0000
  H   H11       1.0  0.73116  0.53762  0.06954  1.0000
  H   H12       1.0  0.76884  0.46238  0.56954  1.0000
  H   H13       1.0  0.17464  0.50835  0.02479  1.0000
  H   H14       1.0  0.32536  0.49165  0.52479  1.0000
  H   H15       1.0  0.82536  0.49165  0.97521  1.0000
  H   H16       1.0  0.67464  0.50835  0.47521  1.0000
  H   H17       1.0  0.52577  0.18402  0.20514  1.0000
  H   H18       1.0  0.97423  0.81598  0.70514  1.0000
  H   H19       1.0  0.47422  0.81599  0.79486  1.0000
  H   H20       1.0  0.02578  0.18401  0.29486  1.0000
  C   C1        1.0  0.52438  0.24642  0.97861  1.0000
  C   C2        1.0  0.97562  0.75358  0.47861  1.0000
  C   C3        1.0  0.47562  0.75358  0.02139  1.0000
  C   C4        1.0  0.02438  0.24642  0.52139  1.0000
  C   C5        1.0  0.54091  0.26954  0.89022  1.0000
  C   C6        1.0  0.95909  0.73045  0.39022  1.0000
  C   C7        1.0  0.45909  0.73046  0.10978  1.0000
  C   C8        1.0  0.04091  0.26954  0.60978  1.0000
  C   C9        1.0  0.37326  0.31021  0.02291  1.0000
  C   C10       1.0  0.12674  0.68979  0.52291  1.0000
  C   C11       1.0  0.62674  0.68978  0.97709  1.0000
  C   C12       1.0  0.87326  0.31021  0.47709  1.0000
  C   C13       1.0  0.66965  0.16024  0.01482  1.0000
  C   C14       1.0  0.83034  0.83976  0.51482  1.0000
  C   C15       1.0  0.33034  0.83976  0.98518  1.0000
  C   C16       1.0  0.16966  0.16024  0.48518  1.0000
  C   C17       1.0  0.38139  0.28408  0.10474  1.0000
  C   C18       1.0  0.11861  0.71592  0.60474  1.0000
  C   C19       1.0  0.61861  0.71592  0.89526  1.0000
  C   C20       1.0  0.88140  0.28408  0.39526  1.0000
  C   C21       1.0  0.66798  0.13745  0.09555  1.0000
  C   C22       1.0  0.83202  0.86255  0.59555  1.0000
  C   C23       1.0  0.33201  0.86255  0.90445  1.0000
  C   C24       1.0  0.16798  0.13745  0.40445  1.0000
  C   C25       1.0  0.22067  0.40935  0.98579  1.0000
  C   C26       1.0  0.27933  0.59065  0.48580  1.0000
  C   C27       1.0  0.77934  0.59065  0.01421  1.0000
  C   C28       1.0  0.72067  0.40935  0.51420  1.0000
  C   C29       1.0  0.52617  0.20091  0.14213  1.0000
  C   C30       1.0  0.97383  0.79908  0.64213  1.0000
  C   C31       1.0  0.47383  0.79908  0.85787  1.0000
  C   C32       1.0  0.02617  0.20092  0.35787  1.0000
  N   N1        1.0  0.81972  0.04577  0.13272  1.0000
  N   N2        1.0  0.68028  0.95423  0.63272  1.0000
  N   N3        1.0  0.18028  0.95423  0.86728  1.0000
  N   N4        1.0  0.31972  0.04577  0.36728  1.0000
  N   N5        1.0  0.23387  0.34690  0.15674  1.0000
  N   N6        1.0  0.26614  0.65310  0.65674  1.0000
  N   N7        1.0  0.76613  0.65310  0.84326  1.0000
  N   N8        1.0  0.73387  0.34690  0.34326  1.0000
  O   O1        1.0  0.39168  0.26049  0.84987  1.0000
  O   O2        1.0  0.10832  0.73951  0.34987  1.0000
  O   O3        1.0  0.60831  0.73951  0.15013  1.0000
  O   O4        1.0  0.89169  0.26049  0.65013  1.0000
  O   O5        1.0  0.28049  0.39128  0.22354  1.0000
  O   O6        1.0  0.21951  0.60872  0.72354  1.0000
  O   O7        1.0  0.71951  0.60873  0.77645  1.0000
  O   O8        1.0  0.78049  0.39127  0.27645  1.0000
  O   O9        1.0  0.70547  0.29343  0.86403  1.0000
  O   O10       1.0  0.79453  0.70657  0.36403  1.0000
  O   O11       1.0  0.29453  0.70657  0.13597  1.0000
  O   O12       1.0  0.20547  0.29343  0.63597  1.0000
  O   O13       1.0  0.06999  0.35128  0.13179  1.0000
  O   O14       1.0  0.43001  0.64872  0.63179  1.0000
  O   O15       1.0  0.93001  0.64871  0.86821  1.0000
  O   O16       1.0  0.56999  0.35128  0.36821  1.0000
  O   O17       1.0  0.82347  0.03870  0.20534  1.0000
  O   O18       1.0  0.67653  0.96130  0.70534  1.0000
  O   O19       1.0  0.17652  0.96130  0.79466  1.0000
  O   O20       1.0  0.32348  0.03870  0.29466  1.0000
  O   O21       1.0  0.93715  0.97853  0.08972  1.0000
  O   O22       1.0  0.56285  0.02147  0.58972  1.0000
  O   O23       1.0  0.06285  0.02147  0.91028  1.0000
  O   O24       1.0  0.43715  0.97853  0.41028  1.0000
