data_image0
_chemical_formula_structural       Na4H20C24S4Cl8O16
_chemical_formula_sum              "Na4 H20 C24 S4 Cl8 O16"
_cell_length_a       5.44895
_cell_length_b       10.7705
_cell_length_c       17.2546
_cell_angle_alpha    106.425
_cell_angle_beta     90
_cell_angle_gamma    89.9999

_space_group_name_H-M_alt    "P 1"
_space_group_IT_number       1

loop_
  _space_group_symop_operation_xyz
  'x, y, z'

loop_
  _atom_site_type_symbol
  _atom_site_label
  _atom_site_symmetry_multiplicity
  _atom_site_fract_x
  _atom_site_fract_y
  _atom_site_fract_z
  _atom_site_occupancy
  Na  Na1       1.0  0.90129  0.71804  0.07996  1.0000
  Na  Na2       1.0  0.40129  0.78196  0.92004  1.0000
  Na  Na3       1.0  0.09871  0.28197  0.92004  1.0000
  Na  Na4       1.0  0.59871  0.21804  0.07996  1.0000
  H   H1        1.0  0.17575  0.75478  0.25968  1.0000
  H   H2        1.0  0.67575  0.74522  0.74032  1.0000
  H   H3        1.0  0.82425  0.24522  0.74032  1.0000
  H   H4        1.0  0.32425  0.25478  0.25967  1.0000
  H   H5        1.0  0.60065  0.80526  0.47787  1.0000
  H   H6        1.0  0.10065  0.69474  0.52213  1.0000
  H   H7        1.0  0.39935  0.19474  0.52214  1.0000
  H   H8        1.0  0.89936  0.30526  0.47786  1.0000
  H   H9        1.0  0.85501  0.61394  0.40754  1.0000
  H   H10       1.0  0.35502  0.88606  0.59246  1.0000
  H   H11       1.0  0.14499  0.38606  0.59246  1.0000
  H   H12       1.0  0.64499  0.11394  0.40754  1.0000
  H   H13       1.0  0.65908  0.92397  0.06592  1.0000
  H   H14       1.0  0.15908  0.57603  0.93408  1.0000
  H   H15       1.0  0.34092  0.07603  0.93408  1.0000
  H   H16       1.0  0.84092  0.42397  0.06592  1.0000
  H   H17       1.0  0.42516  0.85577  0.08537  1.0000
  H   H18       1.0  0.92516  0.64423  0.91463  1.0000
  H   H19       1.0  0.57484  0.14423  0.91463  1.0000
  H   H20       1.0  0.07484  0.35577  0.08537  1.0000
  C   C1        1.0  0.32196  0.72362  0.29291  1.0000
  C   C2        1.0  0.82196  0.77638  0.70709  1.0000
  C   C3        1.0  0.67804  0.27638  0.70709  1.0000
  C   C4        1.0  0.17803  0.22362  0.29291  1.0000
  C   C5        1.0  0.36912  0.78924  0.37356  1.0000
  C   C6        1.0  0.86913  0.71076  0.62644  1.0000
  C   C7        1.0  0.63087  0.21076  0.62644  1.0000
  C   C8        1.0  0.13087  0.28924  0.37356  1.0000
  C   C9        1.0  0.56147  0.75194  0.41546  1.0000
  C   C10       1.0  0.06147  0.74806  0.58454  1.0000
  C   C11       1.0  0.43853  0.24806  0.58454  1.0000
  C   C12       1.0  0.93853  0.25194  0.41546  1.0000
  C   C13       1.0  0.70579  0.64631  0.37604  1.0000
  C   C14       1.0  0.20580  0.85369  0.62396  1.0000
  C   C15       1.0  0.29420  0.35369  0.62396  1.0000
  C   C16       1.0  0.79421  0.14631  0.37604  1.0000
  C   C17       1.0  0.66068  0.57953  0.29541  1.0000
  C   C18       1.0  0.16068  0.92047  0.70459  1.0000
  C   C19       1.0  0.33932  0.42047  0.70459  1.0000
  C   C20       1.0  0.83932  0.07953  0.29541  1.0000
  C   C21       1.0  0.46994  0.61909  0.25309  1.0000
  C   C22       1.0  0.96994  0.88091  0.74691  1.0000
  C   C23       1.0  0.53006  0.38091  0.74691  1.0000
  C   C24       1.0  0.03006  0.11909  0.25309  1.0000
  S   S1        1.0  0.41673  0.54518  0.14739  1.0000
  S   S2        1.0  0.91673  0.95482  0.85261  1.0000
  S   S3        1.0  0.58327  0.45482  0.85261  1.0000
  S   S4        1.0  0.08326  0.04518  0.14739  1.0000
  Cl  Cl1       1.0  0.19196  0.92270  0.42101  1.0000
  Cl  Cl2       1.0  0.69196  0.57730  0.57899  1.0000
  Cl  Cl3       1.0  0.80804  0.07730  0.57899  1.0000
  Cl  Cl4       1.0  0.30804  0.42270  0.42101  1.0000
  Cl  Cl5       1.0  0.84478  0.44880  0.25124  1.0000
  Cl  Cl6       1.0  0.34478  0.05120  0.74876  1.0000
  Cl  Cl7       1.0  0.15522  0.55120  0.74876  1.0000
  Cl  Cl8       1.0  0.65522  0.94880  0.25124  1.0000
  O   O1        1.0  0.20989  0.61471  0.12663  1.0000
  O   O2        1.0  0.70989  0.88529  0.87337  1.0000
  O   O3        1.0  0.79011  0.38529  0.87337  1.0000
  O   O4        1.0  0.29011  0.11471  0.12663  1.0000
  O   O5        1.0  0.36516  0.40729  0.13836  1.0000
  O   O6        1.0  0.86517  0.09271  0.86164  1.0000
  O   O7        1.0  0.63484  0.59271  0.86164  1.0000
  O   O8        1.0  0.13483  0.90729  0.13836  1.0000
  O   O9        1.0  0.64708  0.56279  0.10703  1.0000
  O   O10       1.0  0.14707  0.93721  0.89297  1.0000
  O   O11       1.0  0.35292  0.43721  0.89297  1.0000
  O   O12       1.0  0.85293  0.06279  0.10703  1.0000
  O   O13       1.0  0.57092  0.84035  0.04995  1.0000
  O   O14       1.0  0.07092  0.65965  0.95005  1.0000
  O   O15       1.0  0.42908  0.15965  0.95005  1.0000
  O   O16       1.0  0.92908  0.34035  0.04995  1.0000
