data_image0
_chemical_formula_structural       Cd2H44C28N4O12
_chemical_formula_sum              "Cd2 H44 C28 N4 O12"
_cell_length_a       9.24489
_cell_length_b       10.3268
_cell_length_c       10.6071
_cell_angle_alpha    114.864
_cell_angle_beta     100.951
_cell_angle_gamma    107.106

_space_group_name_H-M_alt    "P 1"
_space_group_IT_number       1

loop_
  _space_group_symop_operation_xyz
  'x, y, z'

loop_
  _atom_site_type_symbol
  _atom_site_label
  _atom_site_symmetry_multiplicity
  _atom_site_fract_x
  _atom_site_fract_y
  _atom_site_fract_z
  _atom_site_occupancy
  Cd  Cd1       1.0  0.18819  0.45635  0.36172  1.0000
  Cd  Cd2       1.0  0.81181  0.54365  0.63828  1.0000
  H   H1        1.0  0.88287  0.30218  0.34714  1.0000
  H   H2        1.0  0.11713  0.69782  0.65286  1.0000
  H   H3        1.0  0.98852  0.30827  0.48197  1.0000
  H   H4        1.0  0.01148  0.69173  0.51803  1.0000
  H   H5        1.0  0.50237  0.61593  0.38260  1.0000
  H   H6        1.0  0.49763  0.38407  0.61740  1.0000
  H   H7        1.0  0.44111  0.75039  0.46188  1.0000
  H   H8        1.0  0.55889  0.24961  0.53812  1.0000
  H   H9        1.0  0.08618  0.22008  0.01381  1.0000
  H   H10       1.0  0.91381  0.77993  0.98620  1.0000
  H   H11       1.0  0.12301  0.98329  0.84028  1.0000
  H   H12       1.0  0.87698  0.01671  0.15972  1.0000
  H   H13       1.0  0.30103  0.88940  0.95026  1.0000
  H   H14       1.0  0.69897  0.11060  0.04973  1.0000
  H   H15       1.0  0.40044  0.27320  0.38303  1.0000
  H   H16       1.0  0.59957  0.72681  0.61698  1.0000
  H   H17       1.0  0.46123  0.90520  0.16810  1.0000
  H   H18       1.0  0.53877  0.09480  0.83190  1.0000
  H   H19       1.0  0.61162  0.10072  0.25595  1.0000
  H   H20       1.0  0.38838  0.89928  0.74405  1.0000
  H   H21       1.0  0.31301  0.83041  0.31278  1.0000
  H   H22       1.0  0.68699  0.16959  0.68721  1.0000
  H   H23       1.0  0.25187  0.98773  0.35659  1.0000
  H   H24       1.0  0.74813  0.01227  0.64341  1.0000
  H   H25       1.0  0.74885  0.10163  0.45993  1.0000
  H   H26       1.0  0.25115  0.89837  0.54007  1.0000
  H   H27       1.0  0.61370  0.89877  0.37515  1.0000
  H   H28       1.0  0.38630  0.10123  0.62485  1.0000
  H   H29       1.0  0.53896  0.45170  0.13893  1.0000
  H   H30       1.0  0.46104  0.54829  0.86107  1.0000
  H   H31       1.0  0.61167  0.30212  0.09818  1.0000
  H   H32       1.0  0.38833  0.69788  0.90182  1.0000
  H   H33       1.0  0.64094  0.47282  0.93655  1.0000
  H   H34       1.0  0.35906  0.52718  0.06345  1.0000
  H   H35       1.0  0.73566  0.34390  0.92913  1.0000
  H   H36       1.0  0.26434  0.65609  0.07087  1.0000
  H   H37       1.0  0.85162  0.53476  0.96689  1.0000
  H   H38       1.0  0.14838  0.46524  0.03311  1.0000
  H   H39       1.0  0.92728  0.77487  0.22780  1.0000
  H   H40       1.0  0.07272  0.22513  0.77220  1.0000
  H   H41       1.0  0.83545  0.74728  0.35259  1.0000
  H   H42       1.0  0.16455  0.25272  0.64741  1.0000
  H   H43       1.0  0.71427  0.71577  0.18187  1.0000
  H   H44       1.0  0.28573  0.28423  0.81813  1.0000
  C   C1        1.0  0.16716  0.17671  0.05489  1.0000
  C   C2        1.0  0.83284  0.82329  0.94511  1.0000
  C   C3        1.0  0.18819  0.04694  0.96034  1.0000
  C   C4        1.0  0.81181  0.95306  0.03966  1.0000
  C   C5        1.0  0.28901  0.99505  0.02226  1.0000
  C   C6        1.0  0.71098  0.00495  0.97774  1.0000
  C   C7        1.0  0.37063  0.07604  0.17669  1.0000
  C   C8        1.0  0.62937  0.92396  0.82331  1.0000
  C   C9        1.0  0.34228  0.20519  0.26251  1.0000
  C   C10       1.0  0.65772  0.79481  0.73749  1.0000
  C   C11       1.0  0.49011  0.02986  0.24546  1.0000
  C   C12       1.0  0.50989  0.97014  0.75453  1.0000
  C   C13       1.0  0.34853  0.95560  0.39294  1.0000
  C   C14       1.0  0.65147  0.04439  0.60706  1.0000
  C   C15       1.0  0.63501  0.02103  0.45268  1.0000
  C   C16       1.0  0.36499  0.97897  0.54732  1.0000
  C   C17       1.0  0.93842  0.50564  0.21780  1.0000
  C   C18       1.0  0.06158  0.49436  0.78220  1.0000
  C   C19       1.0  0.78998  0.52871  0.15362  1.0000
  C   C20       1.0  0.21002  0.47129  0.84638  1.0000
  C   C21       1.0  0.64275  0.42677  0.17260  1.0000
  C   C22       1.0  0.35725  0.57323  0.82740  1.0000
  C   C23       1.0  0.67875  0.45977  0.33095  1.0000
  C   C24       1.0  0.32125  0.54023  0.66905  1.0000
  C   C25       1.0  0.75213  0.46651  0.98682  1.0000
  C   C26       1.0  0.24787  0.53349  0.01318  1.0000
  C   C27       1.0  0.81885  0.70200  0.23458  1.0000
  C   C28       1.0  0.18116  0.29800  0.76542  1.0000
  N   N1        1.0  0.24240  0.25356  0.20368  1.0000
  N   N2        1.0  0.75760  0.74645  0.79633  1.0000
  N   N3        1.0  0.50153  0.05588  0.39506  1.0000
  N   N4        1.0  0.49847  0.94412  0.60494  1.0000
  O   O1        1.0  0.04005  0.61161  0.34991  1.0000
  O   O2        1.0  0.95995  0.38839  0.65009  1.0000
  O   O3        1.0  0.95372  0.38115  0.14130  1.0000
  O   O4        1.0  0.04628  0.61885  0.85870  1.0000
  O   O5        1.0  0.65088  0.56738  0.42440  1.0000
  O   O6        1.0  0.34911  0.43262  0.57560  1.0000
  O   O7        1.0  0.74362  0.38263  0.37010  1.0000
  O   O8        1.0  0.25638  0.61737  0.62990  1.0000
  O   O9        1.0  0.97269  0.27383  0.37547  1.0000
  O   O10       1.0  0.02731  0.72616  0.62453  1.0000
  O   O11       1.0  0.40710  0.64354  0.37149  1.0000
  O   O12       1.0  0.59290  0.35646  0.62851  1.0000
