data_image0
_chemical_formula_structural       CoH16C18S2N6O2
_chemical_formula_sum              "Co1 H16 C18 S2 N6 O2"
_cell_length_a       7.48567
_cell_length_b       7.75632
_cell_length_c       9.6825
_cell_angle_alpha    103.327
_cell_angle_beta     101.557
_cell_angle_gamma    116.692

_space_group_name_H-M_alt    "P 1"
_space_group_IT_number       1

loop_
  _space_group_symop_operation_xyz
  'x, y, z'

loop_
  _atom_site_type_symbol
  _atom_site_label
  _atom_site_symmetry_multiplicity
  _atom_site_fract_x
  _atom_site_fract_y
  _atom_site_fract_z
  _atom_site_occupancy
  Co  Co1       1.0  0.50000  0.50000  0.00000  1.0000
  H   H1        1.0  0.04994  0.23381  0.80627  1.0000
  H   H2        1.0  0.95007  0.76620  0.19374  1.0000
  H   H3        1.0  0.74785  0.28371  0.71489  1.0000
  H   H4        1.0  0.25215  0.71629  0.28511  1.0000
  H   H5        1.0  0.18467  0.94376  0.95463  1.0000
  H   H6        1.0  0.81533  0.05624  0.04536  1.0000
  H   H7        1.0  0.46978  0.86482  0.03258  1.0000
  H   H8        1.0  0.53021  0.13518  0.96742  1.0000
  H   H9        1.0  0.52746  0.77886  0.56411  1.0000
  H   H10       1.0  0.47253  0.22115  0.43589  1.0000
  H   H11       1.0  0.44688  0.69347  0.70902  1.0000
  H   H12       1.0  0.55312  0.30652  0.29098  1.0000
  H   H13       1.0  0.84418  0.52073  0.54930  1.0000
  H   H14       1.0  0.15583  0.47927  0.45069  1.0000
  H   H15       1.0  0.77053  0.67266  0.46829  1.0000
  H   H16       1.0  0.22947  0.32733  0.53170  1.0000
  C   C1        1.0  0.07362  0.38826  0.83447  1.0000
  C   C2        1.0  0.92639  0.61175  0.16553  1.0000
  C   C3        1.0  0.90626  0.41830  0.78346  1.0000
  C   C4        1.0  0.09374  0.58170  0.21654  1.0000
  C   C5        1.0  0.94282  0.61946  0.82461  1.0000
  C   C6        1.0  0.05719  0.38055  0.17539  1.0000
  C   C7        1.0  0.14919  0.78439  0.91544  1.0000
  C   C8        1.0  0.85081  0.21561  0.08456  1.0000
  C   C9        1.0  0.30846  0.74230  0.96012  1.0000
  C   C10       1.0  0.69155  0.25770  0.03988  1.0000
  C   C11       1.0  0.76487  0.66109  0.78958  1.0000
  C   C12       1.0  0.23513  0.33890  0.21042  1.0000
  C   C13       1.0  0.48113  0.65033  0.60621  1.0000
  C   C14       1.0  0.51886  0.34966  0.39379  1.0000
  C   C15       1.0  0.71407  0.54811  0.51388  1.0000
  C   C16       1.0  0.28593  0.45188  0.48611  1.0000
  C   C17       1.0  0.67245  0.86293  0.29308  1.0000
  C   C18       1.0  0.32754  0.13706  0.70691  1.0000
  S   S1        1.0  0.76437  0.06002  0.44554  1.0000
  S   S2        1.0  0.23562  0.93998  0.55446  1.0000
  N   N1        1.0  0.27285  0.54759  0.92193  1.0000
  N   N2        1.0  0.72715  0.45241  0.07807  1.0000
  N   N3        1.0  0.66041  0.61865  0.64458  1.0000
  N   N4        1.0  0.33959  0.38136  0.35541  1.0000
  N   N5        1.0  0.60334  0.71643  0.18132  1.0000
  N   N6        1.0  0.39667  0.28357  0.81869  1.0000
  O   O1        1.0  0.72000  0.73400  0.89877  1.0000
  O   O2        1.0  0.28000  0.26600  0.10122  1.0000
