data_image0
_chemical_formula_structural       Sr2P4H24C24O12
_chemical_formula_sum              "Sr2 P4 H24 C24 O12"
_cell_length_a       5.77243
_cell_length_b       7.78384
_cell_length_c       15.901
_cell_angle_alpha    101.363
_cell_angle_beta     100.429
_cell_angle_gamma    89.9884

_space_group_name_H-M_alt    "P 1"
_space_group_IT_number       1

loop_
  _space_group_symop_operation_xyz
  'x, y, z'

loop_
  _atom_site_type_symbol
  _atom_site_label
  _atom_site_symmetry_multiplicity
  _atom_site_fract_x
  _atom_site_fract_y
  _atom_site_fract_z
  _atom_site_occupancy
  Sr  Sr1       1.0  0.89245  0.24996  0.99998  1.0000
  Sr  Sr2       1.0  0.10755  0.75004  0.00002  1.0000
  P   P1        1.0  0.40254  0.41148  0.12999  1.0000
  P   P2        1.0  0.27305  0.08856  0.86995  1.0000
  P   P3        1.0  0.59746  0.58852  0.87001  1.0000
  P   P4        1.0  0.72695  0.91144  0.13006  1.0000
  H   H1        1.0  0.38250  0.10176  0.11538  1.0000
  H   H2        1.0  0.26741  0.39831  0.88463  1.0000
  H   H3        1.0  0.61750  0.89825  0.88462  1.0000
  H   H4        1.0  0.73258  0.60169  0.11537  1.0000
  H   H5        1.0  0.75464  0.39349  0.28614  1.0000
  H   H6        1.0  0.46844  0.10589  0.71332  1.0000
  H   H7        1.0  0.24537  0.60652  0.71385  1.0000
  H   H8        1.0  0.53157  0.89410  0.28668  1.0000
  H   H9        1.0  0.76913  0.51769  0.44286  1.0000
  H   H10       1.0  0.32493  0.98163  0.55672  1.0000
  H   H11       1.0  0.23087  0.48231  0.55714  1.0000
  H   H12       1.0  0.67508  0.01837  0.44328  1.0000
  H   H13       1.0  0.44585  0.70297  0.49058  1.0000
  H   H14       1.0  0.95364  0.79689  0.50955  1.0000
  H   H15       1.0  0.55415  0.29703  0.50941  1.0000
  H   H16       1.0  0.04636  0.20311  0.49045  1.0000
  H   H17       1.0  0.10577  0.76240  0.37967  1.0000
  H   H18       1.0  0.72553  0.73796  0.62096  1.0000
  H   H19       1.0  0.89422  0.23760  0.62033  1.0000
  H   H20       1.0  0.27446  0.26204  0.37904  1.0000
  H   H21       1.0  0.08861  0.63375  0.22308  1.0000
  H   H22       1.0  0.86612  0.86677  0.77740  1.0000
  H   H23       1.0  0.91138  0.36624  0.77692  1.0000
  H   H24       1.0  0.13387  0.13324  0.22260  1.0000
  C   C1        1.0  0.41841  0.50376  0.24441  1.0000
  C   C2        1.0  0.17420  0.99627  0.75556  1.0000
  C   C3        1.0  0.58159  0.49624  0.75559  1.0000
  C   C4        1.0  0.82580  0.00373  0.24444  1.0000
  C   C5        1.0  0.61125  0.47261  0.30663  1.0000
  C   C6        1.0  0.30439  0.02708  0.69311  1.0000
  C   C7        1.0  0.38875  0.52740  0.69337  1.0000
  C   C8        1.0  0.69561  0.97292  0.30689  1.0000
  C   C9        1.0  0.61994  0.54390  0.39485  1.0000
  C   C10       1.0  0.22418  0.95574  0.60495  1.0000
  C   C11       1.0  0.38006  0.45610  0.60515  1.0000
  C   C12       1.0  0.77582  0.04425  0.39505  1.0000
  C   C13       1.0  0.43828  0.64758  0.42156  1.0000
  C   C14       1.0  0.01564  0.85236  0.57854  1.0000
  C   C15       1.0  0.56172  0.35242  0.57844  1.0000
  C   C16       1.0  0.98436  0.14764  0.42146  1.0000
  C   C17       1.0  0.24698  0.67991  0.35980  1.0000
  C   C18       1.0  0.88666  0.82031  0.64055  1.0000
  C   C19       1.0  0.75302  0.32009  0.64020  1.0000
  C   C20       1.0  0.11334  0.17969  0.35945  1.0000
  C   C21       1.0  0.23623  0.60748  0.27150  1.0000
  C   C22       1.0  0.96485  0.89279  0.72877  1.0000
  C   C23       1.0  0.76377  0.39251  0.72850  1.0000
  C   C24       1.0  0.03515  0.10722  0.27123  1.0000
  O   O1        1.0  0.65160  0.41439  0.10984  1.0000
  O   O2        1.0  0.54222  0.08568  0.88999  1.0000
  O   O3        1.0  0.34839  0.58561  0.89016  1.0000
  O   O4        1.0  0.45778  0.91432  0.11001  1.0000
  O   O5        1.0  0.21692  0.50326  0.07626  1.0000
  O   O6        1.0  0.14135  0.99677  0.92377  1.0000
  O   O7        1.0  0.78308  0.49674  0.92374  1.0000
  O   O8        1.0  0.85865  0.00323  0.07623  1.0000
  O   O9        1.0  0.29515  0.21736  0.11300  1.0000
  O   O10       1.0  0.18240  0.28266  0.88695  1.0000
  O   O11       1.0  0.70485  0.78264  0.88700  1.0000
  O   O12       1.0  0.81760  0.71734  0.11305  1.0000
