data_image0
_chemical_formula_structural       Li4H24C16N4O26
_chemical_formula_sum              "Li4 H24 C16 N4 O26"
_cell_length_a       6.88802
_cell_length_b       8.61785
_cell_length_c       11.7388
_cell_angle_alpha    89.9996
_cell_angle_beta     90.0002
_cell_angle_gamma    102.598

_space_group_name_H-M_alt    "P 1"
_space_group_IT_number       1

loop_
  _space_group_symop_operation_xyz
  'x, y, z'

loop_
  _atom_site_type_symbol
  _atom_site_label
  _atom_site_symmetry_multiplicity
  _atom_site_fract_x
  _atom_site_fract_y
  _atom_site_fract_z
  _atom_site_occupancy
  Li  Li1       1.0  0.88256  0.06737  0.25000  1.0000
  Li  Li2       1.0  0.11744  0.93263  0.75000  1.0000
  Li  Li3       1.0  0.33267  0.04905  0.25000  1.0000
  Li  Li4       1.0  0.66732  0.95095  0.75000  1.0000
  H   H1        1.0  0.92554  0.15784  0.03822  1.0000
  H   H2        1.0  0.07446  0.84216  0.53823  1.0000
  H   H3        1.0  0.07446  0.84216  0.96178  1.0000
  H   H4        1.0  0.92554  0.15784  0.46178  1.0000
  H   H5        1.0  0.75233  0.00692  0.03646  1.0000
  H   H6        1.0  0.24766  0.99308  0.53646  1.0000
  H   H7        1.0  0.24766  0.99308  0.96354  1.0000
  H   H8        1.0  0.75233  0.00692  0.46354  1.0000
  H   H9        1.0  0.01926  0.83653  0.18408  1.0000
  H   H10       1.0  0.98073  0.16348  0.68408  1.0000
  H   H11       1.0  0.98073  0.16347  0.81592  1.0000
  H   H12       1.0  0.01926  0.83653  0.31591  1.0000
  H   H13       1.0  0.51544  0.83958  0.18297  1.0000
  H   H14       1.0  0.48455  0.16042  0.68297  1.0000
  H   H15       1.0  0.48455  0.16042  0.81703  1.0000
  H   H16       1.0  0.51544  0.83958  0.31703  1.0000
  H   H17       1.0  0.12855  0.34524  0.18267  1.0000
  H   H18       1.0  0.87145  0.65475  0.68268  1.0000
  H   H19       1.0  0.87145  0.65475  0.81733  1.0000
  H   H20       1.0  0.12855  0.34524  0.31732  1.0000
  H   H21       1.0  0.66519  0.39747  0.94483  1.0000
  H   H22       1.0  0.33482  0.60253  0.44484  1.0000
  H   H23       1.0  0.33482  0.60253  0.05517  1.0000
  H   H24       1.0  0.66519  0.39747  0.55517  1.0000
  C   C1        1.0  0.50318  0.23827  0.05190  1.0000
  C   C2        1.0  0.49683  0.76172  0.55189  1.0000
  C   C3        1.0  0.49683  0.76174  0.94810  1.0000
  C   C4        1.0  0.50317  0.23828  0.44810  1.0000
  C   C5        1.0  0.73974  0.49087  0.15066  1.0000
  C   C6        1.0  0.26028  0.50913  0.65066  1.0000
  C   C7        1.0  0.26027  0.50913  0.84934  1.0000
  C   C8        1.0  0.73973  0.49086  0.34934  1.0000
  C   C9        1.0  0.60307  0.34136  0.15058  1.0000
  C   C10       1.0  0.39693  0.65865  0.65060  1.0000
  C   C11       1.0  0.39693  0.65863  0.84941  1.0000
  C   C12       1.0  0.60307  0.34136  0.34941  1.0000
  C   C13       1.0  0.82893  0.59039  0.04789  1.0000
  C   C14       1.0  0.17108  0.40961  0.54789  1.0000
  C   C15       1.0  0.17108  0.40961  0.95210  1.0000
  C   C16       1.0  0.82893  0.59038  0.45211  1.0000
  N   N1        1.0  0.53953  0.27477  0.25000  1.0000
  N   N2        1.0  0.46047  0.72524  0.75000  1.0000
  N   N3        1.0  0.80107  0.55964  0.24999  1.0000
  N   N4        1.0  0.19893  0.44036  0.75001  1.0000
  O   O1        1.0  0.37439  0.11803  0.07501  1.0000
  O   O2        1.0  0.62560  0.88196  0.57500  1.0000
  O   O3        1.0  0.62561  0.88197  0.92500  1.0000
  O   O4        1.0  0.37439  0.11803  0.42499  1.0000
  O   O5        1.0  0.94029  0.72266  0.06551  1.0000
  O   O6        1.0  0.05971  0.27734  0.56551  1.0000
  O   O7        1.0  0.05972  0.27734  0.93449  1.0000
  O   O8        1.0  0.94029  0.72266  0.43449  1.0000
  O   O9        1.0  0.78573  0.53430  0.94666  1.0000
  O   O10       1.0  0.21428  0.46569  0.44666  1.0000
  O   O11       1.0  0.21428  0.46569  0.05334  1.0000
  O   O12       1.0  0.78572  0.53431  0.55334  1.0000
  O   O13       1.0  0.55069  0.28264  0.94733  1.0000
  O   O14       1.0  0.44931  0.71736  0.44732  1.0000
  O   O15       1.0  0.44930  0.71736  0.05267  1.0000
  O   O16       1.0  0.55069  0.28264  0.55268  1.0000
  O   O17       1.0  0.82592  0.08985  0.08789  1.0000
  O   O18       1.0  0.17408  0.91015  0.58789  1.0000
  O   O19       1.0  0.17408  0.91016  0.91211  1.0000
  O   O20       1.0  0.82592  0.08985  0.41211  1.0000
  O   O21       1.0  0.06233  0.90781  0.25000  1.0000
  O   O22       1.0  0.93766  0.09218  0.75000  1.0000
  O   O23       1.0  0.53652  0.90958  0.25000  1.0000
  O   O24       1.0  0.46347  0.09042  0.75000  1.0000
  O   O25       1.0  0.08244  0.27963  0.25000  1.0000
  O   O26       1.0  0.91755  0.72037  0.75000  1.0000
