data_image0
_chemical_formula_structural       ZnH28C30N8O6
_chemical_formula_sum              "Zn1 H28 C30 N8 O6"
_cell_length_a       5.4465
_cell_length_b       11.5704
_cell_length_c       11.8045
_cell_angle_alpha    66.657
_cell_angle_beta     85.7833
_cell_angle_gamma    82.9323

_space_group_name_H-M_alt    "P 1"
_space_group_IT_number       1

loop_
  _space_group_symop_operation_xyz
  'x, y, z'

loop_
  _atom_site_type_symbol
  _atom_site_label
  _atom_site_symmetry_multiplicity
  _atom_site_fract_x
  _atom_site_fract_y
  _atom_site_fract_z
  _atom_site_occupancy
  Zn  Zn1       1.0  1.00000  1.00000  1.00000  1.0000
  H   H1        1.0  0.88157  0.63460  0.57448  1.0000
  H   H2        1.0  0.11844  0.36541  0.42552  1.0000
  H   H3        1.0  0.89209  0.85423  0.55855  1.0000
  H   H4        1.0  0.10791  0.14579  0.44145  1.0000
  H   H5        1.0  0.53923  0.95831  0.64095  1.0000
  H   H6        1.0  0.46073  0.04171  0.35904  1.0000
  H   H7        1.0  0.17775  0.84153  0.74259  1.0000
  H   H8        1.0  0.82225  0.15847  0.25741  1.0000
  H   H9        1.0  0.16310  0.62234  0.75468  1.0000
  H   H10       1.0  0.83692  0.37766  0.24533  1.0000
  H   H11       1.0  0.87779  0.40501  0.62389  1.0000
  H   H12       1.0  0.12220  0.59500  0.37610  1.0000
  H   H13       1.0  0.74093  0.21892  0.53796  1.0000
  H   H14       1.0  0.25907  0.78108  0.46204  1.0000
  H   H15       1.0  0.49096  0.14395  0.63319  1.0000
  H   H16       1.0  0.50903  0.85606  0.36681  1.0000
  H   H17       1.0  0.64785  0.85045  0.91287  1.0000
  H   H18       1.0  0.35214  0.14954  0.08713  1.0000
  H   H19       1.0  0.65192  0.64360  0.90101  1.0000
  H   H20       1.0  0.34808  0.35638  0.09900  1.0000
  H   H21       1.0  0.33767  0.53036  0.09944  1.0000
  H   H22       1.0  0.66233  0.46963  0.90055  1.0000
  H   H23       1.0  0.31132  0.74609  0.09485  1.0000
  H   H24       1.0  0.68867  0.25390  0.90515  1.0000
  H   H25       1.0  0.76848  0.97478  0.19512  1.0000
  H   H26       1.0  0.23153  0.02521  0.80489  1.0000
  H   H27       1.0  0.54448  0.94841  0.12764  1.0000
  H   H28       1.0  0.45553  0.05159  0.87236  1.0000
  C   C1        1.0  0.52008  0.61401  0.66506  1.0000
  C   C2        1.0  0.47992  0.38599  0.33495  1.0000
  C   C3        1.0  0.72779  0.67954  0.61193  1.0000
  C   C4        1.0  0.27223  0.32046  0.38808  1.0000
  C   C5        1.0  0.73431  0.80266  0.60379  1.0000
  C   C6        1.0  0.26566  0.19737  0.39622  1.0000
  C   C7        1.0  0.53606  0.86120  0.65009  1.0000
  C   C8        1.0  0.46393  0.13880  0.34991  1.0000
  C   C9        1.0  0.33199  0.79570  0.70643  1.0000
  C   C10       1.0  0.66798  0.20431  0.29358  1.0000
  C   C11       1.0  0.32396  0.67297  0.71370  1.0000
  C   C12       1.0  0.67606  0.32701  0.28631  1.0000
  C   C13       1.0  0.50038  0.48930  0.66494  1.0000
  C   C14       1.0  0.49962  0.51071  0.33505  1.0000
  C   C15       1.0  0.67944  0.40497  0.64078  1.0000
  C   C16       1.0  0.32058  0.59504  0.35922  1.0000
  C   C17       1.0  0.65227  0.19370  0.62975  1.0000
  C   C18       1.0  0.34773  0.80630  0.37026  1.0000
  C   C19       1.0  0.83670  0.10920  0.72893  1.0000
  C   C20       1.0  0.16329  0.89080  0.27108  1.0000
  C   C21       1.0  0.79976  0.77731  0.95245  1.0000
  C   C22       1.0  0.20025  0.22268  0.04754  1.0000
  C   C23       1.0  0.80214  0.65881  0.94785  1.0000
  C   C24       1.0  0.19787  0.34118  0.05215  1.0000
  C   C25       1.0  0.99541  0.56398  0.00099  1.0000
  C   C26       1.0  0.00462  0.43601  0.99899  1.0000
  C   C27       1.0  0.18092  0.59738  0.05539  1.0000
  C   C28       1.0  0.81908  0.40261  0.94459  1.0000
  C   C29       1.0  0.16729  0.71850  0.05437  1.0000
  C   C30       1.0  0.83273  0.28150  0.94562  1.0000
  N   N1        1.0  0.27876  0.43770  0.68626  1.0000
  N   N2        1.0  0.72124  0.56231  0.31375  1.0000
  N   N3        1.0  0.31195  0.32792  0.67614  1.0000
  N   N4        1.0  0.68806  0.67209  0.32386  1.0000
  N   N5        1.0  0.55531  0.30763  0.64809  1.0000
  N   N6        1.0  0.44469  0.69237  0.35191  1.0000
  N   N7        1.0  0.97954  0.80813  0.00456  1.0000
  N   N8        1.0  0.02045  0.19186  0.99543  1.0000
  O   O1        1.0  0.76596  0.08768  0.84108  1.0000
  O   O2        1.0  0.23403  0.91231  0.15892  1.0000
  O   O3        1.0  0.03855  0.06743  0.69380  1.0000
  O   O4        1.0  0.96145  0.93258  0.30619  1.0000
  O   O5        1.0  0.68370  0.00065  0.11410  1.0000
  O   O6        1.0  0.31631  0.99934  0.88590  1.0000
