data_image0
_chemical_formula_structural       Cd2H16C20S2N4O8
_chemical_formula_sum              "Cd2 H16 C20 S2 N4 O8"
_cell_length_a       6.94705
_cell_length_b       6.94702
_cell_length_c       11.8692
_cell_angle_alpha    90
_cell_angle_beta     90
_cell_angle_gamma    89.9996

_space_group_name_H-M_alt    "P 1"
_space_group_IT_number       1

loop_
  _space_group_symop_operation_xyz
  'x, y, z'

loop_
  _atom_site_type_symbol
  _atom_site_label
  _atom_site_symmetry_multiplicity
  _atom_site_fract_x
  _atom_site_fract_y
  _atom_site_fract_z
  _atom_site_occupancy
  Cd  Cd1       1.0  0.49999  1.00000  0.46025  1.0000
  Cd  Cd2       1.0  0.00000  0.50000  0.53975  1.0000
  H   H1        1.0  0.71103  0.21103  0.66509  1.0000
  H   H2        1.0  0.28898  0.78898  0.66510  1.0000
  H   H3        1.0  0.21102  0.28897  0.33491  1.0000
  H   H4        1.0  0.78898  0.71102  0.33491  1.0000
  H   H5        1.0  0.72089  0.22089  0.87207  1.0000
  H   H6        1.0  0.27913  0.77913  0.87207  1.0000
  H   H7        1.0  0.22088  0.27911  0.12793  1.0000
  H   H8        1.0  0.77911  0.72088  0.12793  1.0000
  H   H9        1.0  0.29021  0.79021  0.24946  1.0000
  H   H10       1.0  0.70978  0.20978  0.24947  1.0000
  H   H11       1.0  0.79021  0.70979  0.75054  1.0000
  H   H12       1.0  0.20978  0.29021  0.75054  1.0000
  H   H13       1.0  0.27955  0.77955  0.04007  1.0000
  H   H14       1.0  0.72046  0.22046  0.04007  1.0000
  H   H15       1.0  0.77954  0.72046  0.95993  1.0000
  H   H16       1.0  0.22046  0.27954  0.95993  1.0000
  C   C1        1.0  0.61771  0.11771  0.71442  1.0000
  C   C2        1.0  0.38229  0.88229  0.71442  1.0000
  C   C3        1.0  0.11771  0.38228  0.28558  1.0000
  C   C4        1.0  0.88229  0.61771  0.28558  1.0000
  C   C5        1.0  0.62161  0.12161  0.83150  1.0000
  C   C6        1.0  0.37842  0.87842  0.83150  1.0000
  C   C7        1.0  0.12160  0.37840  0.16850  1.0000
  C   C8        1.0  0.87840  0.62160  0.16850  1.0000
  C   C9        1.0  0.50000  0.00000  0.89382  1.0000
  C   C10       1.0  1.00000  0.50000  0.10618  1.0000
  C   C11       1.0  0.38263  0.88263  0.19866  1.0000
  C   C12       1.0  0.61737  0.11737  0.19866  1.0000
  C   C13       1.0  0.88263  0.61737  0.80135  1.0000
  C   C14       1.0  0.11737  0.38263  0.80134  1.0000
  C   C15       1.0  0.37832  0.87832  0.08139  1.0000
  C   C16       1.0  0.62168  0.12168  0.08139  1.0000
  C   C17       1.0  0.87832  0.62167  0.91861  1.0000
  C   C18       1.0  0.12168  0.37833  0.91861  1.0000
  C   C19       1.0  0.50001  0.00001  0.01894  1.0000
  C   C20       1.0  1.00000  0.50000  0.98106  1.0000
  S   S1        1.0  0.50000  0.50000  0.50000  1.0000
  S   S2        1.0  1.00000  1.00000  0.50000  1.0000
  N   N1        1.0  0.50001  0.00001  0.65646  1.0000
  N   N2        1.0  1.00000  0.50000  0.34354  1.0000
  N   N3        1.0  0.50000  1.00000  0.25652  1.0000
  N   N4        1.0  1.00000  0.50000  0.74348  1.0000
  O   O1        1.0  0.48885  0.67222  0.42533  1.0000
  O   O2        1.0  0.51115  0.32777  0.42533  1.0000
  O   O3        1.0  0.98884  0.82777  0.57467  1.0000
  O   O4        1.0  0.01115  0.17222  0.57467  1.0000
  O   O5        1.0  0.17222  0.98884  0.42533  1.0000
  O   O6        1.0  0.82777  0.01115  0.42533  1.0000
  O   O7        1.0  0.32778  0.48884  0.57467  1.0000
  O   O8        1.0  0.67223  0.51115  0.57467  1.0000
