data_image0
_chemical_formula_structural       H16Pb4C28S4O16
_chemical_formula_sum              "H16 Pb4 C28 S4 O16"
_cell_length_a       7.89161
_cell_length_b       8.80998
_cell_length_c       12.283
_cell_angle_alpha    89.9989
_cell_angle_beta     106.093
_cell_angle_gamma    90.0022

_space_group_name_H-M_alt    "P 1"
_space_group_IT_number       1

loop_
  _space_group_symop_operation_xyz
  'x, y, z'

loop_
  _atom_site_type_symbol
  _atom_site_label
  _atom_site_symmetry_multiplicity
  _atom_site_fract_x
  _atom_site_fract_y
  _atom_site_fract_z
  _atom_site_occupancy
  H   H1        1.0  0.88203  0.49805  0.87974  1.0000
  H   H2        1.0  0.61797  0.99804  0.12026  1.0000
  H   H3        1.0  0.11799  0.50195  0.12027  1.0000
  H   H4        1.0  0.38204  0.00196  0.87973  1.0000
  H   H5        1.0  0.88170  0.34151  0.05095  1.0000
  H   H6        1.0  0.61829  0.84150  0.94905  1.0000
  H   H7        1.0  0.11831  0.65849  0.94906  1.0000
  H   H8        1.0  0.38170  0.15850  0.05094  1.0000
  H   H9        1.0  0.84321  0.06171  0.03150  1.0000
  H   H10       1.0  0.65679  0.56172  0.96850  1.0000
  H   H11       1.0  0.15680  0.93828  0.96851  1.0000
  H   H12       1.0  0.34318  0.43828  0.03149  1.0000
  H   H13       1.0  0.80541  0.93940  0.84251  1.0000
  H   H14       1.0  0.69460  0.43939  0.15749  1.0000
  H   H15       1.0  0.19460  0.06060  0.15749  1.0000
  H   H16       1.0  0.30538  0.56061  0.84250  1.0000
  Pb  Pb1       1.0  0.47643  0.28988  0.42823  1.0000
  Pb  Pb2       1.0  0.02356  0.78988  0.57180  1.0000
  Pb  Pb3       1.0  0.52353  0.71012  0.57178  1.0000
  Pb  Pb4       1.0  0.97642  0.21011  0.42822  1.0000
  C   C1        1.0  0.83674  0.30709  0.76842  1.0000
  C   C2        1.0  0.66326  0.80707  0.23158  1.0000
  C   C3        1.0  0.16325  0.69292  0.23158  1.0000
  C   C4        1.0  0.33673  0.19293  0.76842  1.0000
  C   C5        1.0  0.86277  0.37547  0.87388  1.0000
  C   C6        1.0  0.63723  0.87546  0.12612  1.0000
  C   C7        1.0  0.13724  0.62453  0.12612  1.0000
  C   C8        1.0  0.36278  0.12454  0.87388  1.0000
  C   C9        1.0  0.86296  0.28775  0.96851  1.0000
  C   C10       1.0  0.63704  0.78775  0.03149  1.0000
  C   C11       1.0  0.13705  0.71225  0.03149  1.0000
  C   C12       1.0  0.36296  0.21225  0.96851  1.0000
  C   C13       1.0  0.84121  0.13083  0.95771  1.0000
  C   C14       1.0  0.65880  0.63083  0.04229  1.0000
  C   C15       1.0  0.15881  0.86917  0.04230  1.0000
  C   C16       1.0  0.34120  0.36917  0.95770  1.0000
  C   C17       1.0  0.81990  0.06202  0.85272  1.0000
  C   C18       1.0  0.68012  0.56202  0.14729  1.0000
  C   C19       1.0  0.18012  0.93798  0.14729  1.0000
  C   C20       1.0  0.31988  0.43799  0.85270  1.0000
  C   C21       1.0  0.81561  0.14864  0.75626  1.0000
  C   C22       1.0  0.68441  0.64862  0.24374  1.0000
  C   C23       1.0  0.18440  0.85136  0.24374  1.0000
  C   C24       1.0  0.31559  0.35138  0.75625  1.0000
  C   C25       1.0  0.78788  0.06937  0.64501  1.0000
  C   C26       1.0  0.71213  0.56936  0.35499  1.0000
  C   C27       1.0  0.21212  0.93062  0.35500  1.0000
  C   C28       1.0  0.28788  0.43064  0.64500  1.0000
  S   S1        1.0  0.82918  0.43181  0.64857  1.0000
  S   S2        1.0  0.67081  0.93178  0.35143  1.0000
  S   S3        1.0  0.17081  0.56819  0.35143  1.0000
  S   S4        1.0  0.32916  0.06821  0.64856  1.0000
  O   O1        1.0  0.62331  0.43755  0.59843  1.0000
  O   O2        1.0  0.87669  0.93751  0.40159  1.0000
  O   O3        1.0  0.37668  0.56247  0.40156  1.0000
  O   O4        1.0  0.12331  0.06248  0.59843  1.0000
  O   O5        1.0  0.88081  0.58575  0.70345  1.0000
  O   O6        1.0  0.61922  0.08573  0.29656  1.0000
  O   O7        1.0  0.11920  0.41424  0.29655  1.0000
  O   O8        1.0  0.38077  0.91427  0.70344  1.0000
  O   O9        1.0  0.75143  0.14970  0.55492  1.0000
  O   O10       1.0  0.74858  0.64969  0.44509  1.0000
  O   O11       1.0  0.24856  0.85029  0.44509  1.0000
  O   O12       1.0  0.25144  0.35031  0.55491  1.0000
  O   O13       1.0  0.80149  0.92472  0.64588  1.0000
  O   O14       1.0  0.69851  0.42471  0.35413  1.0000
  O   O15       1.0  0.19850  0.07528  0.35413  1.0000
  O   O16       1.0  0.30150  0.57529  0.64587  1.0000
