data_image0
_chemical_formula_structural       CoH24C30S2N6O8
_chemical_formula_sum              "Co1 H24 C30 S2 N6 O8"
_cell_length_a       8.81907
_cell_length_b       11.3091
_cell_length_c       11.5792
_cell_angle_alpha    115.949
_cell_angle_beta     95.2066
_cell_angle_gamma    102.138

_space_group_name_H-M_alt    "P 1"
_space_group_IT_number       1

loop_
  _space_group_symop_operation_xyz
  'x, y, z'

loop_
  _atom_site_type_symbol
  _atom_site_label
  _atom_site_symmetry_multiplicity
  _atom_site_fract_x
  _atom_site_fract_y
  _atom_site_fract_z
  _atom_site_occupancy
  Co  Co1       1.0  1.00000  0.00000  1.00000  1.0000
  H   H1        1.0  0.83100  0.09520  0.23654  1.0000
  H   H2        1.0  0.16900  0.90480  0.76346  1.0000
  H   H3        1.0  0.75573  0.04863  0.41860  1.0000
  H   H4        1.0  0.24427  0.95137  0.58140  1.0000
  H   H5        1.0  0.96367  0.71056  0.27340  1.0000
  H   H6        1.0  0.03633  0.28944  0.72660  1.0000
  H   H7        1.0  0.03189  0.77183  0.09882  1.0000
  H   H8        1.0  0.96810  0.22818  0.90118  1.0000
  H   H9        1.0  0.69942  0.71448  0.58674  1.0000
  H   H10       1.0  0.30058  0.28553  0.41327  1.0000
  H   H11       1.0  0.90699  0.76739  0.65374  1.0000
  H   H12       1.0  0.09301  0.23261  0.34627  1.0000
  H   H13       1.0  0.91947  0.53697  0.47027  1.0000
  H   H14       1.0  0.08053  0.46303  0.52972  1.0000
  H   H15       1.0  0.82755  0.52971  0.59965  1.0000
  H   H16       1.0  0.17245  0.47029  0.40035  1.0000
  H   H17       1.0  0.51552  0.06151  0.27285  1.0000
  H   H18       1.0  0.48448  0.93848  0.72716  1.0000
  H   H19       1.0  0.25216  0.93199  0.12045  1.0000
  H   H20       1.0  0.74784  0.06802  0.87955  1.0000
  H   H21       1.0  0.21177  0.26945  0.07677  1.0000
  H   H22       1.0  0.78823  0.73054  0.92322  1.0000
  H   H23       1.0  0.47448  0.41206  0.22569  1.0000
  H   H24       1.0  0.52552  0.58794  0.77431  1.0000
  C   C1        1.0  0.85843  0.01083  0.24774  1.0000
  C   C2        1.0  0.14157  0.98917  0.75225  1.0000
  C   C3        1.0  0.81554  0.98427  0.34864  1.0000
  C   C4        1.0  0.18446  0.01574  0.65136  1.0000
  C   C5        1.0  0.85252  0.87479  0.35956  1.0000
  C   C6        1.0  0.14748  0.12521  0.64044  1.0000
  C   C7        1.0  0.93179  0.79650  0.26869  1.0000
  C   C8        1.0  0.06821  0.20350  0.73131  1.0000
  C   C9        1.0  0.97100  0.83146  0.17169  1.0000
  C   C10       1.0  0.02900  0.16854  0.82831  1.0000
  C   C11       1.0  0.80814  0.84737  0.46882  1.0000
  C   C12       1.0  0.19187  0.15263  0.53118  1.0000
  C   C13       1.0  0.81442  0.69983  0.56493  1.0000
  C   C14       1.0  0.18559  0.30017  0.43507  1.0000
  C   C15       1.0  0.81858  0.55442  0.51784  1.0000
  C   C16       1.0  0.18142  0.44558  0.48216  1.0000
  C   C17       1.0  0.66274  0.33076  0.36625  1.0000
  C   C18       1.0  0.33725  0.66923  0.63375  1.0000
  C   C19       1.0  0.51439  0.24860  0.26414  1.0000
  C   C20       1.0  0.48561  0.75140  0.73586  1.0000
  C   C21       1.0  0.45275  0.11064  0.22984  1.0000
  C   C22       1.0  0.54724  0.88936  0.77016  1.0000
  C   C23       1.0  0.30539  0.03825  0.14614  1.0000
  C   C24       1.0  0.69461  0.96175  0.85386  1.0000
  C   C25       1.0  0.28301  0.22733  0.12188  1.0000
  C   C26       1.0  0.71700  0.77267  0.87811  1.0000
  C   C27       1.0  0.42886  0.30619  0.20520  1.0000
  C   C28       1.0  0.57115  0.69381  0.79480  1.0000
  C   C29       1.0  0.91529  0.27020  0.12449  1.0000
  C   C30       1.0  0.08472  0.72981  0.87551  1.0000
  S   S1        1.0  0.87748  0.41607  0.17364  1.0000
  S   S2        1.0  0.12253  0.58394  0.82635  1.0000
  N   N1        1.0  0.93611  0.93689  0.16085  1.0000
  N   N2        1.0  0.06389  0.06311  0.83915  1.0000
  N   N3        1.0  0.21847  0.09613  0.09565  1.0000
  N   N4        1.0  0.78152  0.90386  0.90435  1.0000
  N   N5        1.0  0.94281  0.16230  0.08745  1.0000
  N   N6        1.0  0.05719  0.83770  0.91255  1.0000
  O   O1        1.0  0.84758  0.73589  0.46243  1.0000
  O   O2        1.0  0.15243  0.26410  0.53757  1.0000
  O   O3        1.0  0.74445  0.91704  0.55292  1.0000
  O   O4        1.0  0.25557  0.08297  0.44709  1.0000
  O   O5        1.0  0.67402  0.46579  0.42132  1.0000
  O   O6        1.0  0.32598  0.53421  0.57868  1.0000
  O   O7        1.0  0.75811  0.28154  0.40031  1.0000
  O   O8        1.0  0.24190  0.71845  0.59969  1.0000
