data_image0
_chemical_formula_structural       Zn2H26C40N12O8
_chemical_formula_sum              "Zn2 H26 C40 N12 O8"
_cell_length_a       10.2588
_cell_length_b       9.93804
_cell_length_c       11.1053
_cell_angle_alpha    76.8785
_cell_angle_beta     63.8339
_cell_angle_gamma    60.3064

_space_group_name_H-M_alt    "P 1"
_space_group_IT_number       1

loop_
  _space_group_symop_operation_xyz
  'x, y, z'

loop_
  _atom_site_type_symbol
  _atom_site_label
  _atom_site_symmetry_multiplicity
  _atom_site_fract_x
  _atom_site_fract_y
  _atom_site_fract_z
  _atom_site_occupancy
  Zn  Zn1       1.0  0.05854  0.07604  0.27614  1.0000
  Zn  Zn2       1.0  0.94145  0.92397  0.72386  1.0000
  H   H1        1.0  0.74107  0.16776  0.56334  1.0000
  H   H2        1.0  0.25892  0.83225  0.43666  1.0000
  H   H3        1.0  0.94281  0.45505  0.29658  1.0000
  H   H4        1.0  0.05719  0.54496  0.70341  1.0000
  H   H5        1.0  0.68139  0.63015  0.51459  1.0000
  H   H6        1.0  0.31862  0.36985  0.48540  1.0000
  H   H7        1.0  0.11303  0.76551  0.13776  1.0000
  H   H8        1.0  0.88696  0.23450  0.86225  1.0000
  H   H9        1.0  0.43214  0.94436  0.07584  1.0000
  H   H10       1.0  0.56786  0.05564  0.92418  1.0000
  H   H11       1.0  0.57061  0.74680  0.86509  1.0000
  H   H12       1.0  0.42940  0.25319  0.13493  1.0000
  H   H13       1.0  0.18163  0.33492  0.14418  1.0000
  H   H14       1.0  0.81837  0.66508  0.85582  1.0000
  H   H15       1.0  0.06838  0.09736  0.96628  1.0000
  H   H16       1.0  0.93162  0.90264  0.03372  1.0000
  H   H17       1.0  0.22326  0.25431  0.76553  1.0000
  H   H18       1.0  0.77675  0.74568  0.23446  1.0000
  H   H19       1.0  0.58498  0.62380  0.73374  1.0000
  H   H20       1.0  0.41502  0.37621  0.26626  1.0000
  H   H21       1.0  0.17506  0.56510  0.04635  1.0000
  H   H22       1.0  0.82495  0.43489  0.95366  1.0000
  H   H23       1.0  0.46442  0.28216  0.69361  1.0000
  H   H24       1.0  0.53558  0.71784  0.30639  1.0000
  H   H25       1.0  0.57434  0.09049  0.26579  1.0000
  H   H26       1.0  0.42568  0.90948  0.73419  1.0000
  C   C1        1.0  0.75772  0.27007  0.51578  1.0000
  C   C2        1.0  0.24227  0.72994  0.48421  1.0000
  C   C3        1.0  0.86012  0.42185  0.38313  1.0000
  C   C4        1.0  0.13988  0.57815  0.61687  1.0000
  C   C5        1.0  0.73122  0.51046  0.48995  1.0000
  C   C6        1.0  0.26877  0.48956  0.51004  1.0000
  C   C7        1.0  0.21906  0.78595  0.09389  1.0000
  C   C8        1.0  0.78094  0.21406  0.90612  1.0000
  C   C9        1.0  0.38716  0.87723  0.05563  1.0000
  C   C10       1.0  0.61284  0.12276  0.94439  1.0000
  C   C11       1.0  0.45686  0.77938  0.95226  1.0000
  C   C12       1.0  0.54314  0.22062  0.04774  1.0000
  C   C13       1.0  0.16184  0.30059  0.06986  1.0000
  C   C14       1.0  0.83817  0.69941  0.93014  1.0000
  C   C15       1.0  0.10912  0.17576  0.97403  1.0000
  C   C16       1.0  0.89088  0.82424  0.02598  1.0000
  C   C17       1.0  0.18684  0.25178  0.87320  1.0000
  C   C18       1.0  0.81316  0.74821  0.12681  1.0000
  C   C19       1.0  0.53265  0.45423  0.69948  1.0000
  C   C20       1.0  0.46735  0.54578  0.30052  1.0000
  C   C21       1.0  0.50429  0.56922  0.77346  1.0000
  C   C22       1.0  0.49571  0.43079  0.22654  1.0000
  C   C23       1.0  0.37522  0.60905  0.89862  1.0000
  C   C24       1.0  0.62478  0.39095  0.10138  1.0000
  C   C25       1.0  0.27586  0.53506  0.94912  1.0000
  C   C26       1.0  0.72415  0.46493  0.05088  1.0000
  C   C27       1.0  0.30931  0.41817  0.87469  1.0000
  C   C28       1.0  0.69068  0.58184  0.12531  1.0000
  C   C29       1.0  0.43638  0.37678  0.74892  1.0000
  C   C30       1.0  0.56361  0.62322  0.25108  1.0000
  C   C31       1.0  0.27595  0.12498  0.36128  1.0000
  C   C32       1.0  0.72404  0.87502  0.63872  1.0000
  C   C33       1.0  0.38446  0.05742  0.43994  1.0000
  C   C34       1.0  0.61555  0.94257  0.56005  1.0000
  C   C35       1.0  0.34429  0.00382  0.57442  1.0000
  C   C36       1.0  0.65571  0.99617  0.42558  1.0000
  C   C37       1.0  0.18707  0.99352  0.66320  1.0000
  C   C38       1.0  0.81293  0.00649  0.33679  1.0000
  C   C39       1.0  0.53893  0.05145  0.36998  1.0000
  C   C40       1.0  0.46108  0.94853  0.63001  1.0000
  N   N1        1.0  0.87571  0.27306  0.40013  1.0000
  N   N2        1.0  0.12428  0.72695  0.59986  1.0000
  N   N3        1.0  0.66580  0.41322  0.57380  1.0000
  N   N4        1.0  0.33419  0.58680  0.42619  1.0000
  N   N5        1.0  0.23928  0.88061  0.14272  1.0000
  N   N6        1.0  0.76071  0.11939  0.85729  1.0000
  N   N7        1.0  0.34933  0.72041  0.97730  1.0000
  N   N8        1.0  0.65067  0.27958  0.02271  1.0000
  N   N9        1.0  0.09432  0.20758  0.09555  1.0000
  N   N10       1.0  0.90568  0.79242  0.90445  1.0000
  N   N11       1.0  0.21901  0.33221  0.93531  1.0000
  N   N12       1.0  0.78100  0.66778  0.06469  1.0000
  O   O1        1.0  0.23476  0.26496  0.32575  1.0000
  O   O2        1.0  0.76525  0.73504  0.67424  1.0000
  O   O3        1.0  0.24813  0.02997  0.32666  1.0000
  O   O4        1.0  0.75186  0.97004  0.67333  1.0000
  O   O5        1.0  0.17115  0.93574  0.77923  1.0000
  O   O6        1.0  0.82885  0.06427  0.22077  1.0000
  O   O7        1.0  0.07998  0.03907  0.61265  1.0000
  O   O8        1.0  0.92002  0.96093  0.38736  1.0000
