data_image0
_chemical_formula_structural       Y4H28C24O32
_chemical_formula_sum              "Y4 H28 C24 O32"
_cell_length_a       8.05744
_cell_length_b       9.54206
_cell_length_c       12.2771
_cell_angle_alpha    91.398
_cell_angle_beta     90
_cell_angle_gamma    90

_space_group_name_H-M_alt    "P 1"
_space_group_IT_number       1

loop_
  _space_group_symop_operation_xyz
  'x, y, z'

loop_
  _atom_site_type_symbol
  _atom_site_label
  _atom_site_symmetry_multiplicity
  _atom_site_fract_x
  _atom_site_fract_y
  _atom_site_fract_z
  _atom_site_occupancy
  Y   Y1        1.0  0.44453  0.69167  0.41728  1.0000
  Y   Y2        1.0  0.94453  0.80833  0.08272  1.0000
  Y   Y3        1.0  0.55547  0.30833  0.58272  1.0000
  Y   Y4        1.0  0.05547  0.19167  0.91728  1.0000
  H   H1        1.0  0.83215  0.43036  0.17989  1.0000
  H   H2        1.0  0.33215  0.06964  0.32011  1.0000
  H   H3        1.0  0.16785  0.56964  0.82011  1.0000
  H   H4        1.0  0.66785  0.93036  0.67989  1.0000
  H   H5        1.0  0.68693  0.17089  0.29233  1.0000
  H   H6        1.0  0.18693  0.32911  0.20767  1.0000
  H   H7        1.0  0.31307  0.82911  0.70767  1.0000
  H   H8        1.0  0.81307  0.67089  0.79233  1.0000
  H   H9        1.0  0.89128  0.86586  0.49893  1.0000
  H   H10       1.0  0.39128  0.63414  0.00107  1.0000
  H   H11       1.0  0.10872  0.13414  0.50107  1.0000
  H   H12       1.0  0.60872  0.36586  0.99893  1.0000
  H   H13       1.0  0.64273  0.96321  0.42302  1.0000
  H   H14       1.0  0.14273  0.53679  0.07698  1.0000
  H   H15       1.0  0.35727  0.03679  0.57698  1.0000
  H   H16       1.0  0.85727  0.46321  0.92302  1.0000
  H   H17       1.0  0.70900  0.87466  0.32178  1.0000
  H   H18       1.0  0.20900  0.62534  0.17822  1.0000
  H   H19       1.0  0.29100  0.12534  0.67822  1.0000
  H   H20       1.0  0.79100  0.37466  0.82178  1.0000
  H   H21       1.0  0.48178  0.75180  0.18150  1.0000
  H   H22       1.0  0.98178  0.74820  0.31850  1.0000
  H   H23       1.0  0.51822  0.24820  0.81850  1.0000
  H   H24       1.0  0.01822  0.25180  0.68150  1.0000
  H   H25       1.0  0.30816  0.81851  0.21915  1.0000
  H   H26       1.0  0.80816  0.68149  0.28085  1.0000
  H   H27       1.0  0.69184  0.18149  0.78085  1.0000
  H   H28       1.0  0.19184  0.31851  0.71915  1.0000
  C   C1        1.0  0.15742  0.85635  0.46050  1.0000
  C   C2        1.0  0.65742  0.64365  0.03950  1.0000
  C   C3        1.0  0.84258  0.14365  0.53950  1.0000
  C   C4        1.0  0.34258  0.35635  0.96050  1.0000
  C   C5        1.0  0.69886  0.44841  0.33708  1.0000
  C   C6        1.0  0.19886  0.05159  0.16292  1.0000
  C   C7        1.0  0.30114  0.55159  0.66292  1.0000
  C   C8        1.0  0.80114  0.94841  0.83708  1.0000
  C   C9        1.0  0.77075  0.36990  0.24262  1.0000
  C   C10       1.0  0.27075  0.13010  0.25738  1.0000
  C   C11       1.0  0.22925  0.63010  0.75738  1.0000
  C   C12       1.0  0.72925  0.86990  0.74262  1.0000
  C   C13       1.0  0.74898  0.23096  0.22973  1.0000
  C   C14       1.0  0.24898  0.26904  0.27027  1.0000
  C   C15       1.0  0.25102  0.76904  0.77027  1.0000
  C   C16       1.0  0.75102  0.73096  0.72973  1.0000
  C   C17       1.0  0.00290  0.93027  0.49247  1.0000
  C   C18       1.0  0.50290  0.56973  0.00753  1.0000
  C   C19       1.0  0.99710  0.06973  0.50754  1.0000
  C   C20       1.0  0.49710  0.43027  0.99246  1.0000
  C   C21       1.0  0.81547  0.14958  0.13417  1.0000
  C   C22       1.0  0.31547  0.35042  0.36583  1.0000
  C   C23       1.0  0.18453  0.85042  0.86583  1.0000
  C   C24       1.0  0.68453  0.64958  0.63417  1.0000
  O   O1        1.0  0.30129  0.90260  0.48750  1.0000
  O   O2        1.0  0.80129  0.59741  0.01250  1.0000
  O   O3        1.0  0.69871  0.09740  0.51250  1.0000
  O   O4        1.0  0.19871  0.40260  0.98750  1.0000
  O   O5        1.0  0.38590  0.73832  0.23226  1.0000
  O   O6        1.0  0.88590  0.76168  0.26774  1.0000
  O   O7        1.0  0.61410  0.26168  0.76774  1.0000
  O   O8        1.0  0.11410  0.23832  0.73226  1.0000
  O   O9        1.0  0.66491  0.57876  0.32248  1.0000
  O   O10       1.0  0.16491  0.92124  0.17752  1.0000
  O   O11       1.0  0.33509  0.42124  0.67752  1.0000
  O   O12       1.0  0.83509  0.07876  0.82248  1.0000
  O   O13       1.0  0.14442  0.74299  0.40318  1.0000
  O   O14       1.0  0.64442  0.75701  0.09682  1.0000
  O   O15       1.0  0.85558  0.25701  0.59682  1.0000
  O   O16       1.0  0.35558  0.24299  0.90318  1.0000
  O   O17       1.0  0.60824  0.89382  0.36545  1.0000
  O   O18       1.0  0.10824  0.60618  0.13455  1.0000
  O   O19       1.0  0.39176  0.10618  0.63455  1.0000
  O   O20       1.0  0.89176  0.39382  0.86545  1.0000
  O   O21       1.0  0.85365  0.21562  0.04861  1.0000
  O   O22       1.0  0.35365  0.28438  0.45139  1.0000
  O   O23       1.0  0.14635  0.78438  0.95139  1.0000
  O   O24       1.0  0.64635  0.71562  0.54861  1.0000
  O   O25       1.0  0.83328  0.01878  0.14709  1.0000
  O   O26       1.0  0.33328  0.48122  0.35291  1.0000
  O   O27       1.0  0.16672  0.98122  0.85291  1.0000
  O   O28       1.0  0.66672  0.51878  0.64709  1.0000
  O   O29       1.0  0.66679  0.38719  0.42430  1.0000
  O   O30       1.0  0.16679  0.11281  0.07570  1.0000
  O   O31       1.0  0.33321  0.61281  0.57570  1.0000
  O   O32       1.0  0.83321  0.88719  0.92430  1.0000
