data_image0
_chemical_formula_structural       Ho4H28C24O32
_chemical_formula_sum              "Ho4 H28 C24 O32"
_cell_length_a       8.02571
_cell_length_b       9.51621
_cell_length_c       12.2642
_cell_angle_alpha    91.3345
_cell_angle_beta     90.0001
_cell_angle_gamma    90.0001

_space_group_name_H-M_alt    "P 1"
_space_group_IT_number       1

loop_
  _space_group_symop_operation_xyz
  'x, y, z'

loop_
  _atom_site_type_symbol
  _atom_site_label
  _atom_site_symmetry_multiplicity
  _atom_site_fract_x
  _atom_site_fract_y
  _atom_site_fract_z
  _atom_site_occupancy
  Ho  Ho1       1.0  0.94405  0.69212  0.41716  1.0000
  Ho  Ho2       1.0  0.44405  0.80788  0.08284  1.0000
  Ho  Ho3       1.0  0.05595  0.30788  0.58284  1.0000
  Ho  Ho4       1.0  0.55595  0.19213  0.91716  1.0000
  H   H1        1.0  0.69239  0.33025  0.20619  1.0000
  H   H2        1.0  0.19239  0.16975  0.29382  1.0000
  H   H3        1.0  0.30761  0.66975  0.79382  1.0000
  H   H4        1.0  0.80761  0.83025  0.70618  1.0000
  H   H5        1.0  0.82903  0.06817  0.32106  1.0000
  H   H6        1.0  0.32903  0.43183  0.17894  1.0000
  H   H7        1.0  0.17097  0.93183  0.67894  1.0000
  H   H8        1.0  0.67097  0.56817  0.82106  1.0000
  H   H9        1.0  0.39161  0.86488  0.49872  1.0000
  H   H10       1.0  0.89161  0.63511  0.00128  1.0000
  H   H11       1.0  0.60839  0.13511  0.50128  1.0000
  H   H12       1.0  0.10839  0.36489  0.99872  1.0000
  H   H13       1.0  0.80832  0.81794  0.21882  1.0000
  H   H14       1.0  0.30832  0.68206  0.28118  1.0000
  H   H15       1.0  0.19168  0.18206  0.78118  1.0000
  H   H16       1.0  0.69168  0.31794  0.71882  1.0000
  H   H17       1.0  0.20906  0.87381  0.32171  1.0000
  H   H18       1.0  0.70906  0.62619  0.17829  1.0000
  H   H19       1.0  0.79094  0.12619  0.67829  1.0000
  H   H20       1.0  0.29094  0.37381  0.82171  1.0000
  H   H21       1.0  0.98259  0.75073  0.18167  1.0000
  H   H22       1.0  0.48259  0.74927  0.31833  1.0000
  H   H23       1.0  0.01741  0.24927  0.81833  1.0000
  H   H24       1.0  0.51741  0.25073  0.68167  1.0000
  H   H25       1.0  0.14179  0.96270  0.42271  1.0000
  H   H26       1.0  0.64179  0.53730  0.07729  1.0000
  H   H27       1.0  0.85821  0.03730  0.57729  1.0000
  H   H28       1.0  0.35821  0.46270  0.92271  1.0000
  C   C1        1.0  0.81709  0.35018  0.36601  1.0000
  C   C2        1.0  0.31709  0.14982  0.13399  1.0000
  C   C3        1.0  0.18291  0.64982  0.63399  1.0000
  C   C4        1.0  0.68291  0.85018  0.86601  1.0000
  C   C5        1.0  0.75161  0.26931  0.26970  1.0000
  C   C6        1.0  0.25160  0.23070  0.23030  1.0000
  C   C7        1.0  0.24839  0.73070  0.73030  1.0000
  C   C8        1.0  0.74839  0.76930  0.76970  1.0000
  C   C9        1.0  0.77042  0.12960  0.25745  1.0000
  C   C10       1.0  0.27042  0.37040  0.24255  1.0000
  C   C11       1.0  0.22958  0.87040  0.74255  1.0000
  C   C12       1.0  0.72958  0.62960  0.75745  1.0000
  C   C13       1.0  0.69956  0.05167  0.16215  1.0000
  C   C14       1.0  0.19956  0.44833  0.33785  1.0000
  C   C15       1.0  0.30043  0.94833  0.83785  1.0000
  C   C16       1.0  0.80044  0.55167  0.66215  1.0000
  C   C17       1.0  0.65842  0.85664  0.46016  1.0000
  C   C18       1.0  0.15841  0.64336  0.03984  1.0000
  C   C19       1.0  0.34158  0.14336  0.53984  1.0000
  C   C20       1.0  0.84159  0.35664  0.96016  1.0000
  C   C21       1.0  0.50312  0.93015  0.49223  1.0000
  C   C22       1.0  0.00312  0.56985  0.00777  1.0000
  C   C23       1.0  0.49688  0.06984  0.50777  1.0000
  C   C24       1.0  0.99688  0.43015  0.99223  1.0000
  O   O1        1.0  0.83485  0.48152  0.35373  1.0000
  O   O2        1.0  0.33485  0.01848  0.14627  1.0000
  O   O3        1.0  0.16515  0.51848  0.64627  1.0000
  O   O4        1.0  0.66515  0.98152  0.85373  1.0000
  O   O5        1.0  0.10755  0.89304  0.36520  1.0000
  O   O6        1.0  0.60755  0.60696  0.13480  1.0000
  O   O7        1.0  0.89245  0.10696  0.63480  1.0000
  O   O8        1.0  0.39245  0.39304  0.86520  1.0000
  O   O9        1.0  0.88609  0.73754  0.23242  1.0000
  O   O10       1.0  0.38609  0.76246  0.26758  1.0000
  O   O11       1.0  0.11391  0.26246  0.76758  1.0000
  O   O12       1.0  0.61391  0.23754  0.73242  1.0000
  O   O13       1.0  0.85472  0.28351  0.45162  1.0000
  O   O14       1.0  0.35472  0.21650  0.04837  1.0000
  O   O15       1.0  0.14528  0.71649  0.54837  1.0000
  O   O16       1.0  0.64528  0.78350  0.95162  1.0000
  O   O17       1.0  0.66481  0.92083  0.17609  1.0000
  O   O18       1.0  0.16481  0.57917  0.32391  1.0000
  O   O19       1.0  0.33519  0.07917  0.82391  1.0000
  O   O20       1.0  0.83520  0.42083  0.67609  1.0000
  O   O21       1.0  0.66890  0.11381  0.07490  1.0000
  O   O22       1.0  0.16890  0.38619  0.42509  1.0000
  O   O23       1.0  0.33110  0.88618  0.92509  1.0000
  O   O24       1.0  0.83110  0.61382  0.57491  1.0000
  O   O25       1.0  0.64565  0.74335  0.40237  1.0000
  O   O26       1.0  0.14565  0.75666  0.09762  1.0000
  O   O27       1.0  0.35435  0.25665  0.59762  1.0000
  O   O28       1.0  0.85435  0.24335  0.90238  1.0000
  O   O29       1.0  0.80275  0.90285  0.48752  1.0000
  O   O30       1.0  0.30275  0.59714  0.01248  1.0000
  O   O31       1.0  0.19725  0.09714  0.51248  1.0000
  O   O32       1.0  0.69725  0.40285  0.98752  1.0000
