data_image0
_chemical_formula_structural       Sm4H28C32O36
_chemical_formula_sum              "Sm4 H28 C32 O36"
_cell_length_a       8.33083
_cell_length_b       8.72858
_cell_length_c       14.3304
_cell_angle_alpha    90.0003
_cell_angle_beta     89.9997
_cell_angle_gamma    103.636

_space_group_name_H-M_alt    "P 1"
_space_group_IT_number       1

loop_
  _space_group_symop_operation_xyz
  'x, y, z'

loop_
  _atom_site_type_symbol
  _atom_site_label
  _atom_site_symmetry_multiplicity
  _atom_site_fract_x
  _atom_site_fract_y
  _atom_site_fract_z
  _atom_site_occupancy
  Sm  Sm1       1.0  0.63400  0.59406  0.31272  1.0000
  Sm  Sm2       1.0  0.36600  0.90594  0.81272  1.0000
  Sm  Sm3       1.0  0.36599  0.40594  0.68728  1.0000
  Sm  Sm4       1.0  0.63400  0.09405  0.18728  1.0000
  H   H1        1.0  0.08041  0.11232  0.29346  1.0000
  H   H2        1.0  0.91959  0.38768  0.79346  1.0000
  H   H3        1.0  0.91959  0.88768  0.70654  1.0000
  H   H4        1.0  0.08041  0.61232  0.20654  1.0000
  H   H5        1.0  0.17829  0.46353  0.34739  1.0000
  H   H6        1.0  0.82171  0.03647  0.84739  1.0000
  H   H7        1.0  0.82171  0.53647  0.65261  1.0000
  H   H8        1.0  0.17829  0.96353  0.15261  1.0000
  H   H9        1.0  0.56246  0.12736  0.42494  1.0000
  H   H10       1.0  0.43754  0.37264  0.92494  1.0000
  H   H11       1.0  0.43754  0.87264  0.57506  1.0000
  H   H12       1.0  0.56246  0.62736  0.07506  1.0000
  H   H13       1.0  0.13642  0.93516  0.54869  1.0000
  H   H14       1.0  0.86358  0.56484  0.04869  1.0000
  H   H15       1.0  0.86358  0.06484  0.45131  1.0000
  H   H16       1.0  0.13642  0.43516  0.95131  1.0000
  H   H17       1.0  0.64326  0.41384  0.49790  1.0000
  H   H18       1.0  0.35674  0.08616  0.99790  1.0000
  H   H19       1.0  0.35674  0.58616  0.50210  1.0000
  H   H20       1.0  0.64326  0.91384  0.00209  1.0000
  H   H21       1.0  0.64227  0.58274  0.53037  1.0000
  H   H22       1.0  0.35773  0.91726  0.03037  1.0000
  H   H23       1.0  0.35773  0.41726  0.46963  1.0000
  H   H24       1.0  0.64227  0.08274  0.96963  1.0000
  H   H25       1.0  0.99245  0.59819  0.40293  1.0000
  H   H26       1.0  0.00755  0.90181  0.90294  1.0000
  H   H27       1.0  0.00755  0.40181  0.59707  1.0000
  H   H28       1.0  0.99245  0.09819  0.09706  1.0000
  C   C1        1.0  0.34159  0.23858  0.31509  1.0000
  C   C2        1.0  0.65841  0.26142  0.81509  1.0000
  C   C3        1.0  0.65841  0.76142  0.68491  1.0000
  C   C4        1.0  0.34159  0.73858  0.18492  1.0000
  C   C5        1.0  0.15983  0.22537  0.31370  1.0000
  C   C6        1.0  0.84017  0.27463  0.81370  1.0000
  C   C7        1.0  0.84016  0.77463  0.68630  1.0000
  C   C8        1.0  0.15983  0.72537  0.18630  1.0000
  C   C9        1.0  0.09602  0.35018  0.33047  1.0000
  C   C10       1.0  0.90398  0.14982  0.83047  1.0000
  C   C11       1.0  0.90398  0.64982  0.66953  1.0000
  C   C12       1.0  0.09602  0.85019  0.16953  1.0000
  C   C13       1.0  0.91723  0.34666  0.32335  1.0000
  C   C14       1.0  0.08277  0.15334  0.82335  1.0000
  C   C15       1.0  0.08277  0.65334  0.67665  1.0000
  C   C16       1.0  0.91723  0.84666  0.17665  1.0000
  C   C17       1.0  0.53489  0.87557  0.39431  1.0000
  C   C18       1.0  0.46512  0.62443  0.89431  1.0000
  C   C19       1.0  0.46511  0.12443  0.60569  1.0000
  C   C20       1.0  0.53488  0.37557  0.10569  1.0000
  C   C21       1.0  0.52410  0.00992  0.45530  1.0000
  C   C22       1.0  0.47590  0.49008  0.95530  1.0000
  C   C23       1.0  0.47590  0.99008  0.54470  1.0000
  C   C24       1.0  0.52410  0.50992  0.04470  1.0000
  C   C25       1.0  0.97386  0.80167  0.43965  1.0000
  C   C26       1.0  0.02615  0.69833  0.93965  1.0000
  C   C27       1.0  0.02615  0.19833  0.56035  1.0000
  C   C28       1.0  0.97386  0.30167  0.06035  1.0000
  C   C29       1.0  0.03530  0.93839  0.50108  1.0000
  C   C30       1.0  0.96471  0.56161  0.00109  1.0000
  C   C31       1.0  0.96470  0.06161  0.49891  1.0000
  C   C32       1.0  0.03530  0.43839  0.99892  1.0000
  O   O1        1.0  0.43412  0.35632  0.35788  1.0000
  O   O2        1.0  0.56588  0.14368  0.85788  1.0000
  O   O3        1.0  0.56588  0.64368  0.64212  1.0000
  O   O4        1.0  0.43412  0.85632  0.14212  1.0000
  O   O5        1.0  0.68192  0.52504  0.47919  1.0000
  O   O6        1.0  0.31808  0.97496  0.97919  1.0000
  O   O7        1.0  0.31808  0.47496  0.52081  1.0000
  O   O8        1.0  0.68192  0.02504  0.02081  1.0000
  O   O9        1.0  0.39361  0.13196  0.27309  1.0000
  O   O10       1.0  0.60639  0.36803  0.77309  1.0000
  O   O11       1.0  0.60639  0.86804  0.72691  1.0000
  O   O12       1.0  0.39361  0.63197  0.22691  1.0000
  O   O13       1.0  0.87962  0.48008  0.33458  1.0000
  O   O14       1.0  0.12038  0.01993  0.83460  1.0000
  O   O15       1.0  0.12038  0.51992  0.66541  1.0000
  O   O16       1.0  0.87962  0.98007  0.16541  1.0000
  O   O17       1.0  0.81231  0.21915  0.30707  1.0000
  O   O18       1.0  0.18769  0.28085  0.80707  1.0000
  O   O19       1.0  0.18768  0.78085  0.69293  1.0000
  O   O20       1.0  0.81232  0.71915  0.19293  1.0000
  O   O21       1.0  0.48978  0.73402  0.42398  1.0000
  O   O22       1.0  0.51022  0.76598  0.92398  1.0000
  O   O23       1.0  0.51022  0.26598  0.57602  1.0000
  O   O24       1.0  0.48977  0.23402  0.07602  1.0000
  O   O25       1.0  0.59832  0.90375  0.31300  1.0000
  O   O26       1.0  0.40169  0.59626  0.81300  1.0000
  O   O27       1.0  0.40168  0.09626  0.68700  1.0000
  O   O28       1.0  0.59831  0.40375  0.18700  1.0000
  O   O29       1.0  0.85524  0.79665  0.38605  1.0000
  O   O30       1.0  0.14477  0.70335  0.88605  1.0000
  O   O31       1.0  0.14476  0.20335  0.61395  1.0000
  O   O32       1.0  0.85524  0.29665  0.11395  1.0000
  O   O33       1.0  0.05263  0.68767  0.44681  1.0000
  O   O34       1.0  0.94737  0.81233  0.94682  1.0000
  O   O35       1.0  0.94738  0.31233  0.55318  1.0000
  O   O36       1.0  0.05263  0.18767  0.05318  1.0000
