data_image0
_chemical_formula_structural       Tm4H28C24O32
_chemical_formula_sum              "Tm4 H28 C24 O32"
_cell_length_a       8.0145
_cell_length_b       9.43729
_cell_length_c       12.2328
_cell_angle_alpha    91.3156
_cell_angle_beta     90
_cell_angle_gamma    90

_space_group_name_H-M_alt    "P 1"
_space_group_IT_number       1

loop_
  _space_group_symop_operation_xyz
  'x, y, z'

loop_
  _atom_site_type_symbol
  _atom_site_label
  _atom_site_symmetry_multiplicity
  _atom_site_fract_x
  _atom_site_fract_y
  _atom_site_fract_z
  _atom_site_occupancy
  Tm  Tm1       1.0  0.44255  0.30748  0.58321  1.0000
  Tm  Tm2       1.0  0.94255  0.19252  0.91679  1.0000
  Tm  Tm3       1.0  0.55745  0.69252  0.41679  1.0000
  Tm  Tm4       1.0  0.05745  0.80748  0.08321  1.0000
  H   H1        1.0  0.19203  0.67065  0.79233  1.0000
  H   H2        1.0  0.69202  0.82935  0.70766  1.0000
  H   H3        1.0  0.80797  0.32935  0.20767  1.0000
  H   H4        1.0  0.30797  0.17065  0.29234  1.0000
  H   H5        1.0  0.33629  0.93585  0.68212  1.0000
  H   H6        1.0  0.83629  0.56415  0.81788  1.0000
  H   H7        1.0  0.66371  0.06415  0.31788  1.0000
  H   H8        1.0  0.16371  0.43585  0.18212  1.0000
  H   H9        1.0  0.69440  0.81686  0.21912  1.0000
  H   H10       1.0  0.19440  0.68314  0.28088  1.0000
  H   H11       1.0  0.30560  0.18314  0.78088  1.0000
  H   H12       1.0  0.80560  0.31686  0.71912  1.0000
  H   H13       1.0  0.51806  0.75194  0.18321  1.0000
  H   H14       1.0  0.01806  0.74806  0.31679  1.0000
  H   H15       1.0  0.48193  0.24807  0.81679  1.0000
  H   H16       1.0  0.98193  0.25193  0.68321  1.0000
  H   H17       1.0  0.35995  0.96312  0.42362  1.0000
  H   H18       1.0  0.85995  0.53688  0.07638  1.0000
  H   H19       1.0  0.64005  0.03688  0.57638  1.0000
  H   H20       1.0  0.14005  0.46312  0.92362  1.0000
  H   H21       1.0  0.29321  0.87568  0.32127  1.0000
  H   H22       1.0  0.79320  0.62432  0.17873  1.0000
  H   H23       1.0  0.70680  0.12432  0.67873  1.0000
  H   H24       1.0  0.20679  0.37568  0.82128  1.0000
  H   H25       1.0  0.10969  0.86460  0.49762  1.0000
  H   H26       1.0  0.60969  0.63540  0.00238  1.0000
  H   H27       1.0  0.89031  0.13540  0.50238  1.0000
  H   H28       1.0  0.39031  0.36460  0.99762  1.0000
  C   C1        1.0  0.32069  0.65172  0.63346  1.0000
  C   C2        1.0  0.82069  0.84829  0.86654  1.0000
  C   C3        1.0  0.67931  0.34829  0.36654  1.0000
  C   C4        1.0  0.17931  0.15171  0.13346  1.0000
  C   C5        1.0  0.25412  0.73252  0.73000  1.0000
  C   C6        1.0  0.75411  0.76748  0.77000  1.0000
  C   C7        1.0  0.74588  0.26748  0.27000  1.0000
  C   C8        1.0  0.24588  0.23252  0.23000  1.0000
  C   C9        1.0  0.27490  0.87295  0.74429  1.0000
  C   C10       1.0  0.77489  0.62705  0.75571  1.0000
  C   C11       1.0  0.72510  0.12705  0.25571  1.0000
  C   C12       1.0  0.22510  0.37295  0.24429  1.0000
  C   C13       1.0  0.20148  0.94946  0.84009  1.0000
  C   C14       1.0  0.70148  0.55054  0.65991  1.0000
  C   C15       1.0  0.79852  0.05054  0.15991  1.0000
  C   C16       1.0  0.29852  0.44946  0.34009  1.0000
  C   C17       1.0  0.84231  0.85534  0.45910  1.0000
  C   C18       1.0  0.34231  0.64466  0.04089  1.0000
  C   C19       1.0  0.15770  0.14466  0.54089  1.0000
  C   C20       1.0  0.65769  0.35534  0.95911  1.0000
  C   C21       1.0  0.99737  0.92965  0.49169  1.0000
  C   C22       1.0  0.49737  0.57035  0.00831  1.0000
  C   C23       1.0  0.00263  0.07035  0.50831  1.0000
  C   C24       1.0  0.50263  0.42965  0.99169  1.0000
  O   O1        1.0  0.33698  0.51898  0.64510  1.0000
  O   O2        1.0  0.83697  0.98103  0.85489  1.0000
  O   O3        1.0  0.66303  0.48102  0.35490  1.0000
  O   O4        1.0  0.16302  0.01897  0.14510  1.0000
  O   O5        1.0  0.36048  0.71977  0.54842  1.0000
  O   O6        1.0  0.86048  0.78023  0.95158  1.0000
  O   O7        1.0  0.63952  0.28023  0.45158  1.0000
  O   O8        1.0  0.13952  0.21977  0.04842  1.0000
  O   O9        1.0  0.33611  0.58108  0.32672  1.0000
  O   O10       1.0  0.83610  0.91892  0.17329  1.0000
  O   O11       1.0  0.66389  0.41892  0.67328  1.0000
  O   O12       1.0  0.16390  0.08108  0.82672  1.0000
  O   O13       1.0  0.67152  0.61481  0.57315  1.0000
  O   O14       1.0  0.17152  0.88519  0.92685  1.0000
  O   O15       1.0  0.32848  0.38519  0.42685  1.0000
  O   O16       1.0  0.82848  0.11481  0.07315  1.0000
  O   O17       1.0  0.61457  0.73735  0.23386  1.0000
  O   O18       1.0  0.11457  0.76265  0.26614  1.0000
  O   O19       1.0  0.38543  0.26265  0.76614  1.0000
  O   O20       1.0  0.88543  0.23735  0.73386  1.0000
  O   O21       1.0  0.39457  0.89396  0.36530  1.0000
  O   O22       1.0  0.89457  0.60604  0.13470  1.0000
  O   O23       1.0  0.60543  0.10604  0.63470  1.0000
  O   O24       1.0  0.10543  0.39396  0.86530  1.0000
  O   O25       1.0  0.85497  0.74095  0.40146  1.0000
  O   O26       1.0  0.35497  0.75905  0.09853  1.0000
  O   O27       1.0  0.14502  0.25905  0.59853  1.0000
  O   O28       1.0  0.64502  0.24095  0.90147  1.0000
  O   O29       1.0  0.69751  0.90201  0.48585  1.0000
  O   O30       1.0  0.19751  0.59799  0.01415  1.0000
  O   O31       1.0  0.30249  0.09799  0.51415  1.0000
  O   O32       1.0  0.80249  0.40201  0.98585  1.0000
