data_image0
_chemical_formula_structural       Er4H28C24O32
_chemical_formula_sum              "Er4 H28 C24 O32"
_cell_length_a       7.97732
_cell_length_b       9.50352
_cell_length_c       12.2577
_cell_angle_alpha    91.3624
_cell_angle_beta     90.0004
_cell_angle_gamma    89.9991

_space_group_name_H-M_alt    "P 1"
_space_group_IT_number       1

loop_
  _space_group_symop_operation_xyz
  'x, y, z'

loop_
  _atom_site_type_symbol
  _atom_site_label
  _atom_site_symmetry_multiplicity
  _atom_site_fract_x
  _atom_site_fract_y
  _atom_site_fract_z
  _atom_site_occupancy
  Er  Er1       1.0  0.55488  0.69186  0.41707  1.0000
  Er  Er2       1.0  0.05488  0.80814  0.08293  1.0000
  Er  Er3       1.0  0.44512  0.30816  0.58293  1.0000
  Er  Er4       1.0  0.94512  0.19184  0.91706  1.0000
  H   H1        1.0  0.10911  0.86486  0.49948  1.0000
  H   H2        1.0  0.60910  0.63515  0.00052  1.0000
  H   H3        1.0  0.89088  0.13514  0.50052  1.0000
  H   H4        1.0  0.39092  0.36484  0.99947  1.0000
  H   H5        1.0  0.81325  0.33104  0.20755  1.0000
  H   H6        1.0  0.31322  0.16897  0.29246  1.0000
  H   H7        1.0  0.18676  0.66898  0.79246  1.0000
  H   H8        1.0  0.68677  0.83103  0.70754  1.0000
  H   H9        1.0  0.66610  0.07028  0.31950  1.0000
  H   H10       1.0  0.16608  0.42973  0.18050  1.0000
  H   H11       1.0  0.33391  0.92973  0.68050  1.0000
  H   H12       1.0  0.83392  0.57027  0.81949  1.0000
  H   H13       1.0  0.35829  0.96265  0.42323  1.0000
  H   H14       1.0  0.85832  0.53735  0.07678  1.0000
  H   H15       1.0  0.64170  0.03737  0.57677  1.0000
  H   H16       1.0  0.14169  0.46265  0.92323  1.0000
  H   H17       1.0  0.28949  0.87294  0.32256  1.0000
  H   H18       1.0  0.78952  0.62705  0.17745  1.0000
  H   H19       1.0  0.71049  0.12707  0.67744  1.0000
  H   H20       1.0  0.21050  0.37295  0.82256  1.0000
  H   H21       1.0  0.69107  0.81850  0.21997  1.0000
  H   H22       1.0  0.19107  0.68150  0.28003  1.0000
  H   H23       1.0  0.30892  0.18150  0.78003  1.0000
  H   H24       1.0  0.80892  0.31850  0.71997  1.0000
  H   H25       1.0  0.51640  0.75122  0.18222  1.0000
  H   H26       1.0  0.01641  0.74877  0.31778  1.0000
  H   H27       1.0  0.48358  0.24878  0.81777  1.0000
  H   H28       1.0  0.98358  0.25122  0.68222  1.0000
  C   C1        1.0  0.84076  0.85616  0.46036  1.0000
  C   C2        1.0  0.34076  0.64384  0.03966  1.0000
  C   C3        1.0  0.15922  0.14387  0.53964  1.0000
  C   C4        1.0  0.65924  0.35616  0.96033  1.0000
  C   C5        1.0  0.99681  0.93001  0.49258  1.0000
  C   C6        1.0  0.49681  0.57000  0.00743  1.0000
  C   C7        1.0  0.00317  0.07000  0.50743  1.0000
  C   C8        1.0  0.50319  0.43001  0.99256  1.0000
  C   C9        1.0  0.75096  0.27046  0.27021  1.0000
  C   C10       1.0  0.25094  0.22953  0.22980  1.0000
  C   C11       1.0  0.24906  0.72954  0.72980  1.0000
  C   C12       1.0  0.74906  0.77046  0.77020  1.0000
  C   C13       1.0  0.68497  0.35159  0.36641  1.0000
  C   C14       1.0  0.18496  0.14840  0.13360  1.0000
  C   C15       1.0  0.31506  0.64840  0.63361  1.0000
  C   C16       1.0  0.81504  0.85158  0.86640  1.0000
  C   C17       1.0  0.79962  0.05252  0.16163  1.0000
  C   C18       1.0  0.29962  0.44747  0.33838  1.0000
  C   C19       1.0  0.20037  0.94748  0.83837  1.0000
  C   C20       1.0  0.70039  0.55252  0.66161  1.0000
  C   C21       1.0  0.72802  0.13114  0.25670  1.0000
  C   C22       1.0  0.22801  0.36885  0.24330  1.0000
  C   C23       1.0  0.27199  0.86886  0.74331  1.0000
  C   C24       1.0  0.77200  0.63114  0.75669  1.0000
  O   O1        1.0  0.69529  0.90236  0.48720  1.0000
  O   O2        1.0  0.19530  0.59764  0.01280  1.0000
  O   O3        1.0  0.30468  0.09767  0.51280  1.0000
  O   O4        1.0  0.80471  0.40237  0.98719  1.0000
  O   O5        1.0  0.66652  0.48295  0.35366  1.0000
  O   O6        1.0  0.16652  0.01705  0.14634  1.0000
  O   O7        1.0  0.33351  0.51705  0.64636  1.0000
  O   O8        1.0  0.83349  0.98293  0.85366  1.0000
  O   O9        1.0  0.61312  0.73764  0.23317  1.0000
  O   O10       1.0  0.11312  0.76235  0.26683  1.0000
  O   O11       1.0  0.38686  0.26235  0.76681  1.0000
  O   O12       1.0  0.88687  0.23764  0.73318  1.0000
  O   O13       1.0  0.85377  0.74250  0.40280  1.0000
  O   O14       1.0  0.35376  0.75749  0.09721  1.0000
  O   O15       1.0  0.14621  0.25753  0.59719  1.0000
  O   O16       1.0  0.64624  0.24251  0.90277  1.0000
  O   O17       1.0  0.64722  0.28513  0.45221  1.0000
  O   O18       1.0  0.14720  0.21485  0.04779  1.0000
  O   O19       1.0  0.35280  0.71486  0.54780  1.0000
  O   O20       1.0  0.85279  0.78511  0.95221  1.0000
  O   O21       1.0  0.39193  0.89242  0.36571  1.0000
  O   O22       1.0  0.89196  0.60756  0.13431  1.0000
  O   O23       1.0  0.60804  0.10758  0.63430  1.0000
  O   O24       1.0  0.10805  0.39243  0.86570  1.0000
  O   O25       1.0  0.83130  0.11435  0.07433  1.0000
  O   O26       1.0  0.33129  0.38564  0.42567  1.0000
  O   O27       1.0  0.16869  0.88563  0.92566  1.0000
  O   O28       1.0  0.66871  0.61437  0.57433  1.0000
  O   O29       1.0  0.83436  0.92154  0.17602  1.0000
  O   O30       1.0  0.33437  0.57845  0.32399  1.0000
  O   O31       1.0  0.16565  0.07846  0.82399  1.0000
  O   O32       1.0  0.66566  0.42154  0.67600  1.0000
