data_image0
_chemical_formula_structural       Mn4H32C24O32
_chemical_formula_sum              "Mn4 H32 C24 O32"
_cell_length_a       6.04607
_cell_length_b       10.4265
_cell_length_c       13.4008
_cell_angle_alpha    90
_cell_angle_beta     90
_cell_angle_gamma    90.0002

_space_group_name_H-M_alt    "P 1"
_space_group_IT_number       1

loop_
  _space_group_symop_operation_xyz
  'x, y, z'

loop_
  _atom_site_type_symbol
  _atom_site_label
  _atom_site_symmetry_multiplicity
  _atom_site_fract_x
  _atom_site_fract_y
  _atom_site_fract_z
  _atom_site_occupancy
  Mn  Mn1       1.0  0.90683  0.83369  0.55036  1.0000
  Mn  Mn2       1.0  0.40683  0.66631  0.44965  1.0000
  Mn  Mn3       1.0  0.09317  0.33369  0.94965  1.0000
  Mn  Mn4       1.0  0.59317  0.16631  0.05035  1.0000
  H   H1        1.0  0.97655  0.08459  0.63986  1.0000
  H   H2        1.0  0.47655  0.41541  0.36014  1.0000
  H   H3        1.0  0.02345  0.58459  0.86014  1.0000
  H   H4        1.0  0.52345  0.91541  0.13986  1.0000
  H   H5        1.0  0.38426  0.19919  0.44507  1.0000
  H   H6        1.0  0.88427  0.30081  0.55493  1.0000
  H   H7        1.0  0.61573  0.69919  0.05493  1.0000
  H   H8        1.0  0.11573  0.80081  0.94507  1.0000
  H   H9        1.0  0.71472  0.89406  0.37279  1.0000
  H   H10       1.0  0.21473  0.60594  0.62721  1.0000
  H   H11       1.0  0.28527  0.39406  0.12721  1.0000
  H   H12       1.0  0.78527  0.10594  0.87279  1.0000
  H   H13       1.0  0.82831  0.02519  0.41182  1.0000
  H   H14       1.0  0.32831  0.47481  0.58818  1.0000
  H   H15       1.0  0.17169  0.52519  0.08818  1.0000
  H   H16       1.0  0.67169  0.97481  0.91182  1.0000
  H   H17       1.0  0.39369  0.89996  0.80010  1.0000
  H   H18       1.0  0.89369  0.60004  0.19990  1.0000
  H   H19       1.0  0.60630  0.39996  0.69990  1.0000
  H   H20       1.0  0.10631  0.10004  0.30010  1.0000
  H   H21       1.0  0.13552  0.97496  0.81436  1.0000
  H   H22       1.0  0.63552  0.52504  0.18564  1.0000
  H   H23       1.0  0.86448  0.47496  0.68564  1.0000
  H   H24       1.0  0.36448  0.02504  0.31436  1.0000
  H   H25       1.0  0.29987  0.15912  0.74287  1.0000
  H   H26       1.0  0.79987  0.34088  0.25713  1.0000
  H   H27       1.0  0.70013  0.65912  0.75713  1.0000
  H   H28       1.0  0.20014  0.84088  0.24287  1.0000
  H   H29       1.0  0.54763  0.08810  0.69950  1.0000
  H   H30       1.0  0.04763  0.41190  0.30050  1.0000
  H   H31       1.0  0.45237  0.58810  0.80050  1.0000
  H   H32       1.0  0.95237  0.91190  0.19950  1.0000
  C   C1        1.0  0.12332  0.78063  0.76318  1.0000
  C   C2        1.0  0.62332  0.71937  0.23682  1.0000
  C   C3        1.0  0.87668  0.28063  0.73682  1.0000
  C   C4        1.0  0.37668  0.21937  0.26318  1.0000
  C   C5        1.0  0.23120  0.91199  0.76451  1.0000
  C   C6        1.0  0.73121  0.58801  0.23549  1.0000
  C   C7        1.0  0.76879  0.41199  0.73549  1.0000
  C   C8        1.0  0.26880  0.08801  0.26451  1.0000
  C   C9        1.0  0.25678  0.97937  0.66319  1.0000
  C   C10       1.0  0.75678  0.52063  0.33681  1.0000
  C   C11       1.0  0.74322  0.47937  0.83681  1.0000
  C   C12       1.0  0.24322  0.02063  0.16319  1.0000
  C   C13       1.0  0.39317  0.89214  0.59275  1.0000
  C   C14       1.0  0.89317  0.60786  0.40725  1.0000
  C   C15       1.0  0.60683  0.39214  0.90725  1.0000
  C   C16       1.0  0.10683  0.10786  0.09275  1.0000
  C   C17       1.0  0.37465  0.10799  0.67987  1.0000
  C   C18       1.0  0.87465  0.39201  0.32013  1.0000
  C   C19       1.0  0.62535  0.60799  0.82013  1.0000
  C   C20       1.0  0.12535  0.89201  0.17987  1.0000
  C   C21       1.0  0.37397  0.19650  0.59078  1.0000
  C   C22       1.0  0.87397  0.30349  0.40922  1.0000
  C   C23       1.0  0.62603  0.69651  0.90922  1.0000
  C   C24       1.0  0.12603  0.80349  0.09078  1.0000
  O   O1        1.0  0.04318  0.99840  0.61982  1.0000
  O   O2        1.0  0.54318  0.50160  0.38018  1.0000
  O   O3        1.0  0.95682  0.49840  0.88018  1.0000
  O   O4        1.0  0.45682  0.00160  0.11982  1.0000
  O   O5        1.0  0.04513  0.73132  0.68355  1.0000
  O   O6        1.0  0.54513  0.76868  0.31645  1.0000
  O   O7        1.0  0.95487  0.23132  0.81645  1.0000
  O   O8        1.0  0.45487  0.26868  0.18355  1.0000
  O   O9        1.0  0.12193  0.72064  0.84650  1.0000
  O   O10       1.0  0.62193  0.77936  0.15350  1.0000
  O   O11       1.0  0.87807  0.22064  0.65350  1.0000
  O   O12       1.0  0.37807  0.27936  0.34650  1.0000
  O   O13       1.0  0.29166  0.83822  0.51980  1.0000
  O   O14       1.0  0.79166  0.66178  0.48020  1.0000
  O   O15       1.0  0.70834  0.33822  0.98020  1.0000
  O   O16       1.0  0.20834  0.16178  0.01980  1.0000
  O   O17       1.0  0.59313  0.87503  0.61552  1.0000
  O   O18       1.0  0.09313  0.62497  0.38447  1.0000
  O   O19       1.0  0.40687  0.37503  0.88447  1.0000
  O   O20       1.0  0.90687  0.12498  0.11553  1.0000
  O   O21       1.0  0.39503  0.13696  0.50427  1.0000
  O   O22       1.0  0.89504  0.36304  0.49573  1.0000
  O   O23       1.0  0.60496  0.63696  0.99573  1.0000
  O   O24       1.0  0.10496  0.86304  0.00427  1.0000
  O   O25       1.0  0.35650  0.31398  0.59995  1.0000
  O   O26       1.0  0.85649  0.18603  0.40005  1.0000
  O   O27       1.0  0.64351  0.81397  0.90004  1.0000
  O   O28       1.0  0.14351  0.68602  0.09996  1.0000
  O   O29       1.0  0.83756  0.93037  0.41200  1.0000
  O   O30       1.0  0.33756  0.56963  0.58800  1.0000
  O   O31       1.0  0.16244  0.43037  0.08800  1.0000
  O   O32       1.0  0.66244  0.06964  0.91200  1.0000
