data_image0
_chemical_formula_structural       NiH20C18N4O6
_chemical_formula_sum              "Ni1 H20 C18 N4 O6"
_cell_length_a       7.42963
_cell_length_b       8.55916
_cell_length_c       8.7938
_cell_angle_alpha    97.0752
_cell_angle_beta     115.443
_cell_angle_gamma    108.888

_space_group_name_H-M_alt    "P 1"
_space_group_IT_number       1

loop_
  _space_group_symop_operation_xyz
  'x, y, z'

loop_
  _atom_site_type_symbol
  _atom_site_label
  _atom_site_symmetry_multiplicity
  _atom_site_fract_x
  _atom_site_fract_y
  _atom_site_fract_z
  _atom_site_occupancy
  Ni  Ni1       1.0  0.50000  0.50000  0.50000  1.0000
  H   H1        1.0  0.19973  0.37282  0.84750  1.0000
  H   H2        1.0  0.80027  0.62717  0.15250  1.0000
  H   H3        1.0  0.33284  0.26673  0.12154  1.0000
  H   H4        1.0  0.66716  0.73327  0.87846  1.0000
  H   H5        1.0  0.41853  0.83586  0.44168  1.0000
  H   H6        1.0  0.58146  0.16414  0.55832  1.0000
  H   H7        1.0  0.32997  0.04213  0.27368  1.0000
  H   H8        1.0  0.67003  0.95787  0.72631  1.0000
  H   H9        1.0  0.18863  0.96235  0.95039  1.0000
  H   H10       1.0  0.81137  0.03764  0.04960  1.0000
  H   H11       1.0  0.14500  0.68178  0.78639  1.0000
  H   H12       1.0  0.85500  0.31821  0.21360  1.0000
  H   H13       1.0  0.03145  0.96819  0.33846  1.0000
  H   H14       1.0  0.96855  0.03181  0.66154  1.0000
  H   H15       1.0  0.82625  0.02942  0.34498  1.0000
  H   H16       1.0  0.17374  0.97058  0.65502  1.0000
  H   H17       1.0  0.86201  0.32975  0.49512  1.0000
  H   H18       1.0  0.13799  0.67025  0.50488  1.0000
  H   H19       1.0  0.76705  0.44971  0.39848  1.0000
  H   H20       1.0  0.23295  0.55029  0.60152  1.0000
  C   C1        1.0  0.31628  0.38780  0.11998  1.0000
  C   C2        1.0  0.68372  0.61220  0.88002  1.0000
  C   C3        1.0  0.36018  0.80441  0.30054  1.0000
  C   C4        1.0  0.63983  0.19559  0.69946  1.0000
  C   C5        1.0  0.30796  0.91661  0.20496  1.0000
  C   C6        1.0  0.69204  0.08339  0.79503  1.0000
  C   C7        1.0  0.22923  0.87193  0.02140  1.0000
  C   C8        1.0  0.77078  0.12807  0.97859  1.0000
  C   C9        1.0  0.20021  0.71442  0.92707  1.0000
  C   C10       1.0  0.79980  0.28558  0.07293  1.0000
  C   C11       1.0  0.25383  0.60255  0.02320  1.0000
  C   C12       1.0  0.74618  0.39746  0.97680  1.0000
  C   C13       1.0  0.33246  0.64549  0.20745  1.0000
  C   C14       1.0  0.66755  0.35451  0.79255  1.0000
  C   C15       1.0  0.14910  0.22973  0.49535  1.0000
  C   C16       1.0  0.85090  0.77027  0.50465  1.0000
  C   C17       1.0  0.99371  0.03884  0.42482  1.0000
  C   C18       1.0  0.00628  0.96116  0.57518  1.0000
  N   N1        1.0  0.24611  0.43921  0.97346  1.0000
  N   N2        1.0  0.75390  0.56078  0.02654  1.0000
  N   N3        1.0  0.36962  0.50736  0.26310  1.0000
  N   N4        1.0  0.63038  0.49264  0.73691  1.0000
  O   O1        1.0  0.27161  0.27427  0.42610  1.0000
  O   O2        1.0  0.72839  0.72573  0.57390  1.0000
  O   O3        1.0  0.14632  0.33170  0.61119  1.0000
  O   O4        1.0  0.85367  0.66830  0.38881  1.0000
  O   O5        1.0  0.72673  0.32883  0.40262  1.0000
  O   O6        1.0  0.27327  0.67117  0.59737  1.0000
