data_image0
_chemical_formula_structural       Ni4H36C36N4O20
_chemical_formula_sum              "Ni4 H36 C36 N4 O20"
_cell_length_a       7.45099
_cell_length_b       7.52157
_cell_length_c       17.6058
_cell_angle_alpha    90.0007
_cell_angle_beta     89.9996
_cell_angle_gamma    90

_space_group_name_H-M_alt    "P 1"
_space_group_IT_number       1

loop_
  _space_group_symop_operation_xyz
  'x, y, z'

loop_
  _atom_site_type_symbol
  _atom_site_label
  _atom_site_symmetry_multiplicity
  _atom_site_fract_x
  _atom_site_fract_y
  _atom_site_fract_z
  _atom_site_occupancy
  Ni  Ni1       1.0  0.73512  0.25000  0.71073  1.0000
  Ni  Ni2       1.0  0.76488  0.24999  0.21074  1.0000
  Ni  Ni3       1.0  0.23512  0.75000  0.78926  1.0000
  Ni  Ni4       1.0  0.26488  0.75000  0.28927  1.0000
  H   H1        1.0  0.33036  0.25000  0.68769  1.0000
  H   H2        1.0  0.16964  0.24999  0.18769  1.0000
  H   H3        1.0  0.83037  0.75000  0.81231  1.0000
  H   H4        1.0  0.66963  0.75000  0.31231  1.0000
  H   H5        1.0  0.77189  0.25000  0.54626  1.0000
  H   H6        1.0  0.72811  0.25000  0.04627  1.0000
  H   H7        1.0  0.27189  0.75000  0.95373  1.0000
  H   H8        1.0  0.22810  0.75000  0.45374  1.0000
  H   H9        1.0  0.24440  0.25000  0.44513  1.0000
  H   H10       1.0  0.25560  0.25000  0.94513  1.0000
  H   H11       1.0  0.74440  0.75001  0.05486  1.0000
  H   H12       1.0  0.75559  0.75000  0.55487  1.0000
  H   H13       1.0  0.11762  0.25000  0.57816  1.0000
  H   H14       1.0  0.38238  0.24999  0.07815  1.0000
  H   H15       1.0  0.61762  0.75000  0.92184  1.0000
  H   H16       1.0  0.88237  0.75001  0.42184  1.0000
  H   H17       1.0  0.57713  0.25000  0.42855  1.0000
  H   H18       1.0  0.92287  0.25000  0.92855  1.0000
  H   H19       1.0  0.07713  0.75001  0.07145  1.0000
  H   H20       1.0  0.42286  0.75000  0.57145  1.0000
  H   H21       1.0  0.00141  0.14253  0.78453  1.0000
  H   H22       1.0  0.49857  0.14252  0.28452  1.0000
  H   H23       1.0  0.00142  0.35748  0.78453  1.0000
  H   H24       1.0  0.50143  0.64252  0.71548  1.0000
  H   H25       1.0  0.99858  0.85748  0.21548  1.0000
  H   H26       1.0  0.50143  0.85747  0.71547  1.0000
  H   H27       1.0  0.99859  0.64253  0.21547  1.0000
  H   H28       1.0  0.49858  0.35747  0.28453  1.0000
  H   H29       1.0  0.61060  0.08952  0.94196  1.0000
  H   H30       1.0  0.88939  0.08952  0.44196  1.0000
  H   H31       1.0  0.61060  0.41048  0.94196  1.0000
  H   H32       1.0  0.11062  0.58951  0.55804  1.0000
  H   H33       1.0  0.38940  0.91047  0.05804  1.0000
  H   H34       1.0  0.11061  0.91048  0.55804  1.0000
  H   H35       1.0  0.38941  0.58950  0.05804  1.0000
  H   H36       1.0  0.88939  0.41049  0.44196  1.0000
  C   C1        1.0  0.37929  0.25000  0.62941  1.0000
  C   C2        1.0  0.12072  0.25000  0.12941  1.0000
  C   C3        1.0  0.87929  0.75001  0.87059  1.0000
  C   C4        1.0  0.62070  0.75000  0.37059  1.0000
  C   C5        1.0  0.62605  0.25000  0.54960  1.0000
  C   C6        1.0  0.87395  0.25000  0.04959  1.0000
  C   C7        1.0  0.12606  0.75001  0.95040  1.0000
  C   C8        1.0  0.37394  0.75000  0.45040  1.0000
  C   C9        1.0  0.33246  0.25000  0.49445  1.0000
  C   C10       1.0  0.16754  0.25000  0.99444  1.0000
  C   C11       1.0  0.83246  0.75001  0.00555  1.0000
  C   C12       1.0  0.66753  0.75000  0.50555  1.0000
  C   C13       1.0  0.26186  0.25000  0.56781  1.0000
  C   C14       1.0  0.23814  0.25000  0.06781  1.0000
  C   C15       1.0  0.76186  0.75001  0.93219  1.0000
  C   C16       1.0  0.73813  0.75000  0.43219  1.0000
  C   C17       1.0  0.51808  0.25000  0.48518  1.0000
  C   C18       1.0  0.98192  0.25000  0.98517  1.0000
  C   C19       1.0  0.01808  0.75001  0.01482  1.0000
  C   C20       1.0  0.48191  0.75000  0.51482  1.0000
  C   C21       1.0  0.50803  0.04405  0.82815  1.0000
  C   C22       1.0  0.99198  0.04405  0.32816  1.0000
  C   C23       1.0  0.50803  0.45595  0.82815  1.0000
  C   C24       1.0  0.00802  0.54405  0.67184  1.0000
  C   C25       1.0  0.49197  0.95594  0.17185  1.0000
  C   C26       1.0  0.00802  0.95596  0.67185  1.0000
  C   C27       1.0  0.49197  0.54404  0.17185  1.0000
  C   C28       1.0  0.99198  0.45596  0.32816  1.0000
  C   C29       1.0  0.57538  0.16116  0.89010  1.0000
  C   C30       1.0  0.92462  0.16117  0.39011  1.0000
  C   C31       1.0  0.57538  0.33885  0.89010  1.0000
  C   C32       1.0  0.07539  0.66116  0.60989  1.0000
  C   C33       1.0  0.42462  0.83884  0.10990  1.0000
  C   C34       1.0  0.07538  0.83884  0.60989  1.0000
  C   C35       1.0  0.42462  0.66115  0.10990  1.0000
  C   C36       1.0  0.92462  0.33884  0.39011  1.0000
  N   N1        1.0  0.55866  0.25000  0.62054  1.0000
  N   N2        1.0  0.94134  0.25000  0.12055  1.0000
  N   N3        1.0  0.05867  0.75000  0.87945  1.0000
  N   N4        1.0  0.44133  0.75000  0.37946  1.0000
  O   O1        1.0  0.93043  0.25001  0.79880  1.0000
  O   O2        1.0  0.56956  0.24999  0.29880  1.0000
  O   O3        1.0  0.43045  0.74999  0.70120  1.0000
  O   O4        1.0  0.06956  0.75001  0.20120  1.0000
  O   O5        1.0  0.38454  0.93892  0.84939  1.0000
  O   O6        1.0  0.11547  0.93893  0.34939  1.0000
  O   O7        1.0  0.38454  0.56108  0.84939  1.0000
  O   O8        1.0  0.88454  0.43892  0.65061  1.0000
  O   O9        1.0  0.61547  0.06107  0.15061  1.0000
  O   O10       1.0  0.88454  0.06108  0.65061  1.0000
  O   O11       1.0  0.61547  0.43891  0.15062  1.0000
  O   O12       1.0  0.11547  0.56108  0.34939  1.0000
  O   O13       1.0  0.57408  0.04892  0.76104  1.0000
  O   O14       1.0  0.92594  0.04893  0.26105  1.0000
  O   O15       1.0  0.57408  0.45107  0.76105  1.0000
  O   O16       1.0  0.07406  0.54893  0.73895  1.0000
  O   O17       1.0  0.42592  0.95108  0.23895  1.0000
  O   O18       1.0  0.07406  0.95108  0.73895  1.0000
  O   O19       1.0  0.42593  0.54892  0.23896  1.0000
  O   O20       1.0  0.92594  0.45107  0.26105  1.0000
