data_image0
_chemical_formula_structural       Cu2H34C44N4O8
_chemical_formula_sum              "Cu2 H34 C44 N4 O8"
_cell_length_a       9.58288
_cell_length_b       10.1971
_cell_length_c       11.0886
_cell_angle_alpha    114.838
_cell_angle_beta     102.432
_cell_angle_gamma    98.3111

_space_group_name_H-M_alt    "P 1"
_space_group_IT_number       1

loop_
  _space_group_symop_operation_xyz
  'x, y, z'

loop_
  _atom_site_type_symbol
  _atom_site_label
  _atom_site_symmetry_multiplicity
  _atom_site_fract_x
  _atom_site_fract_y
  _atom_site_fract_z
  _atom_site_occupancy
  Cu  Cu1       1.0  0.95540  0.59627  0.60301  1.0000
  Cu  Cu2       1.0  0.04460  0.40374  0.39700  1.0000
  H   H1        1.0  0.05317  0.60106  0.90431  1.0000
  H   H2        1.0  0.94683  0.39894  0.09569  1.0000
  H   H3        1.0  0.11428  0.68216  0.16103  1.0000
  H   H4        1.0  0.88572  0.31784  0.83897  1.0000
  H   H5        1.0  0.02762  0.88989  0.31290  1.0000
  H   H6        1.0  0.97237  0.11010  0.68710  1.0000
  H   H7        1.0  0.87396  0.01991  0.21310  1.0000
  H   H8        1.0  0.12603  0.98008  0.78690  1.0000
  H   H9        1.0  0.72653  0.77270  0.56757  1.0000
  H   H10       1.0  0.27347  0.22730  0.43243  1.0000
  H   H11       1.0  0.71611  0.95534  0.68007  1.0000
  H   H12       1.0  0.28389  0.04466  0.31993  1.0000
  H   H13       1.0  0.57649  0.79491  0.63772  1.0000
  H   H14       1.0  0.42351  0.20508  0.36228  1.0000
  H   H15       1.0  0.66534  0.06058  0.88417  1.0000
  H   H16       1.0  0.33466  0.93941  0.11582  1.0000
  H   H17       1.0  0.75534  0.11176  0.05975  1.0000
  H   H18       1.0  0.24465  0.88823  0.94024  1.0000
  H   H19       1.0  0.56930  0.88946  0.03748  1.0000
  H   H20       1.0  0.43069  0.11054  0.96251  1.0000
  H   H21       1.0  0.47452  0.85270  0.86687  1.0000
  H   H22       1.0  0.52548  0.14729  0.13312  1.0000
  H   H23       1.0  0.64795  0.30402  0.64745  1.0000
  H   H24       1.0  0.35205  0.69599  0.35255  1.0000
  H   H25       1.0  0.78368  0.97693  0.33187  1.0000
  H   H26       1.0  0.21631  0.02308  0.66813  1.0000
  H   H27       1.0  0.57273  0.77619  0.29100  1.0000
  H   H28       1.0  0.42727  0.22382  0.70900  1.0000
  H   H29       1.0  0.28317  0.46554  0.12454  1.0000
  H   H30       1.0  0.71684  0.53447  0.87547  1.0000
  H   H31       1.0  0.20207  0.48514  0.90664  1.0000
  H   H32       1.0  0.79794  0.51486  0.09336  1.0000
  H   H33       1.0  0.48478  0.46750  0.30908  1.0000
  H   H34       1.0  0.51522  0.53251  0.69092  1.0000
  C   C1        1.0  0.92382  0.75942  0.91450  1.0000
  C   C2        1.0  0.07618  0.24058  0.08550  1.0000
  C   C3        1.0  0.01240  0.68898  0.97139  1.0000
  C   C4        1.0  0.98760  0.31102  0.02861  1.0000
  C   C5        1.0  0.04630  0.73609  0.11446  1.0000
  C   C6        1.0  0.95369  0.26391  0.88554  1.0000
  C   C7        1.0  0.99595  0.85339  0.20088  1.0000
  C   C8        1.0  0.00404  0.14660  0.79911  1.0000
  C   C9        1.0  0.90718  0.92454  0.14598  1.0000
  C   C10       1.0  0.09281  0.07545  0.85401  1.0000
  C   C11       1.0  0.86900  0.87245  0.00212  1.0000
  C   C12       1.0  0.13099  0.12754  0.99787  1.0000
  C   C13       1.0  0.78268  0.82695  0.78147  1.0000
  C   C14       1.0  0.21732  0.17305  0.21853  1.0000
  C   C15       1.0  0.69620  0.83828  0.66015  1.0000
  C   C16       1.0  0.30380  0.16171  0.33985  1.0000
  C   C17       1.0  0.68806  0.01612  0.95884  1.0000
  C   C18       1.0  0.31193  0.98387  0.04115  1.0000
  C   C19       1.0  0.54336  0.94311  0.97050  1.0000
  C   C20       1.0  0.45664  0.05688  0.02949  1.0000
  C   C21       1.0  0.51193  0.07555  0.55269  1.0000
  C   C22       1.0  0.48806  0.92447  0.44732  1.0000
  C   C23       1.0  0.63199  0.18806  0.57160  1.0000
  C   C24       1.0  0.36802  0.81195  0.42840  1.0000
  C   C25       1.0  0.72666  0.15359  0.49125  1.0000
  C   C26       1.0  0.27334  0.84642  0.50875  1.0000
  C   C27       1.0  0.70612  0.00313  0.39117  1.0000
  C   C28       1.0  0.29388  0.99687  0.60883  1.0000
  C   C29       1.0  0.58881  0.89157  0.36864  1.0000
  C   C30       1.0  0.41119  0.10845  0.63136  1.0000
  C   C31       1.0  0.84248  0.27835  0.50375  1.0000
  C   C32       1.0  0.15753  0.72166  0.49626  1.0000
  C   C33       1.0  0.39607  0.47691  0.11857  1.0000
  C   C34       1.0  0.60394  0.52310  0.88144  1.0000
  C   C35       1.0  0.42599  0.49275  0.00455  1.0000
  C   C36       1.0  0.57401  0.50725  0.99545  1.0000
  C   C37       1.0  0.31474  0.49723  0.90051  1.0000
  C   C38       1.0  0.68526  0.50277  0.09949  1.0000
  C   C39       1.0  0.34668  0.51230  0.79036  1.0000
  C   C40       1.0  0.65333  0.48770  0.20964  1.0000
  C   C41       1.0  0.22439  0.51364  0.68161  1.0000
  C   C42       1.0  0.77561  0.48636  0.31840  1.0000
  C   C43       1.0  0.50751  0.47656  0.22026  1.0000
  C   C44       1.0  0.49249  0.52344  0.77975  1.0000
  N   N1        1.0  0.77876  0.91219  0.91486  1.0000
  N   N2        1.0  0.22124  0.08781  0.08514  1.0000
  N   N3        1.0  0.87050  0.73566  0.77761  1.0000
  N   N4        1.0  0.12950  0.26434  0.22239  1.0000
  O   O1        1.0  0.21562  0.43326  0.55471  1.0000
  O   O2        1.0  0.78438  0.56673  0.44528  1.0000
  O   O3        1.0  0.13928  0.59464  0.72705  1.0000
  O   O4        1.0  0.86073  0.40535  0.27295  1.0000
  O   O5        1.0  0.91837  0.24421  0.41864  1.0000
  O   O6        1.0  0.08164  0.75579  0.58136  1.0000
  O   O7        1.0  0.85043  0.40929  0.59580  1.0000
  O   O8        1.0  0.14957  0.59072  0.40419  1.0000
