data_image0
_chemical_formula_structural       Cd4H28C36N4O28
_chemical_formula_sum              "Cd4 H28 C36 N4 O28"
_cell_length_a       7.23167
_cell_length_b       11.5804
_cell_length_c       12.9765
_cell_angle_alpha    102.576
_cell_angle_beta     90.0012
_cell_angle_gamma    90.0005

_space_group_name_H-M_alt    "P 1"
_space_group_IT_number       1

loop_
  _space_group_symop_operation_xyz
  'x, y, z'

loop_
  _atom_site_type_symbol
  _atom_site_label
  _atom_site_symmetry_multiplicity
  _atom_site_fract_x
  _atom_site_fract_y
  _atom_site_fract_z
  _atom_site_occupancy
  Cd  Cd1       1.0  0.90976  0.83611  0.78617  1.0000
  Cd  Cd2       1.0  0.40976  0.66390  0.71383  1.0000
  Cd  Cd3       1.0  0.09023  0.16389  0.21383  1.0000
  Cd  Cd4       1.0  0.59025  0.33610  0.28617  1.0000
  H   H1        1.0  0.34707  0.36744  0.70000  1.0000
  H   H2        1.0  0.84707  0.13256  0.80001  1.0000
  H   H3        1.0  0.65293  0.63256  0.30000  1.0000
  H   H4        1.0  0.15292  0.86743  0.19999  1.0000
  H   H5        1.0  0.82728  0.93798  0.61693  1.0000
  H   H6        1.0  0.32729  0.56203  0.88307  1.0000
  H   H7        1.0  0.17272  0.06202  0.38307  1.0000
  H   H8        1.0  0.67271  0.43797  0.11693  1.0000
  H   H9        1.0  0.85750  0.79848  0.56800  1.0000
  H   H10       1.0  0.35751  0.70152  0.93200  1.0000
  H   H11       1.0  0.14250  0.20152  0.43200  1.0000
  H   H12       1.0  0.64250  0.29848  0.06800  1.0000
  H   H13       1.0  0.37559  0.10424  0.75967  1.0000
  H   H14       1.0  0.87558  0.39576  0.74034  1.0000
  H   H15       1.0  0.62439  0.89575  0.24032  1.0000
  H   H16       1.0  0.12441  0.60424  0.25966  1.0000
  H   H17       1.0  0.01684  0.34242  0.11982  1.0000
  H   H18       1.0  0.51684  0.15760  0.38018  1.0000
  H   H19       1.0  0.98319  0.65760  0.88018  1.0000
  H   H20       1.0  0.48316  0.84241  0.61982  1.0000
  H   H21       1.0  0.19859  0.42306  0.07409  1.0000
  H   H22       1.0  0.69858  0.07694  0.42592  1.0000
  H   H23       1.0  0.80145  0.57694  0.92591  1.0000
  H   H24       1.0  0.30141  0.92306  0.57408  1.0000
  H   H25       1.0  0.99482  0.39185  0.99938  1.0000
  H   H26       1.0  0.49483  0.10816  0.50063  1.0000
  H   H27       1.0  0.00520  0.60816  0.00063  1.0000
  H   H28       1.0  0.50518  0.89185  0.49938  1.0000
  C   C1        1.0  0.35835  0.90213  0.82628  1.0000
  C   C2        1.0  0.85834  0.59788  0.67373  1.0000
  C   C3        1.0  0.64165  0.09787  0.17372  1.0000
  C   C4        1.0  0.14166  0.40212  0.32627  1.0000
  C   C5        1.0  0.30291  0.02166  0.88776  1.0000
  C   C6        1.0  0.80290  0.47834  0.61224  1.0000
  C   C7        1.0  0.69709  0.97834  0.11223  1.0000
  C   C8        1.0  0.19710  0.52166  0.38776  1.0000
  C   C9        1.0  0.31659  0.11691  0.83855  1.0000
  C   C10       1.0  0.81658  0.38310  0.66146  1.0000
  C   C11       1.0  0.68341  0.88308  0.16145  1.0000
  C   C12       1.0  0.18342  0.61690  0.33854  1.0000
  C   C13       1.0  0.25333  0.22853  0.88907  1.0000
  C   C14       1.0  0.75332  0.27148  0.61094  1.0000
  C   C15       1.0  0.74667  0.77147  0.11093  1.0000
  C   C16       1.0  0.24668  0.72853  0.38906  1.0000
  C   C17       1.0  0.17395  0.24297  0.99094  1.0000
  C   C18       1.0  0.67395  0.25703  0.50907  1.0000
  C   C19       1.0  0.82605  0.75703  0.00907  1.0000
  C   C20       1.0  0.32605  0.74297  0.49093  1.0000
  C   C21       1.0  0.23338  0.04281  0.99056  1.0000
  C   C22       1.0  0.73339  0.45719  0.50944  1.0000
  C   C23       1.0  0.76661  0.95719  0.00944  1.0000
  C   C24       1.0  0.26662  0.54280  0.49055  1.0000
  C   C25       1.0  0.27079  0.32864  0.83389  1.0000
  C   C26       1.0  0.77079  0.17137  0.66613  1.0000
  C   C27       1.0  0.72921  0.67136  0.16610  1.0000
  C   C28       1.0  0.22920  0.82864  0.33388  1.0000
  C   C29       1.0  0.09055  0.35593  0.04972  1.0000
  C   C30       1.0  0.59055  0.14407  0.45028  1.0000
  C   C31       1.0  0.90948  0.64408  0.95028  1.0000
  C   C32       1.0  0.40945  0.85593  0.54972  1.0000
  C   C33       1.0  0.22644  0.94354  0.05034  1.0000
  C   C34       1.0  0.72645  0.55646  0.44966  1.0000
  C   C35       1.0  0.77354  0.05646  0.94966  1.0000
  C   C36       1.0  0.27355  0.44354  0.55033  1.0000
  N   N1        1.0  0.17036  0.15051  0.03846  1.0000
  N   N2        1.0  0.67036  0.34949  0.46154  1.0000
  N   N3        1.0  0.82964  0.84950  0.96154  1.0000
  N   N4        1.0  0.32964  0.65051  0.53846  1.0000
  O   O1        1.0  0.22777  0.83120  0.78377  1.0000
  O   O2        1.0  0.72777  0.66880  0.71623  1.0000
  O   O3        1.0  0.77222  0.16879  0.21623  1.0000
  O   O4        1.0  0.27223  0.33119  0.28378  1.0000
  O   O5        1.0  0.52533  0.87698  0.80915  1.0000
  O   O6        1.0  0.02533  0.62303  0.69086  1.0000
  O   O7        1.0  0.47466  0.12302  0.19085  1.0000
  O   O8        1.0  0.97467  0.37697  0.30914  1.0000
  O   O9        1.0  0.34557  0.29727  0.73896  1.0000
  O   O10       1.0  0.84559  0.20273  0.76106  1.0000
  O   O11       1.0  0.65442  0.70272  0.26104  1.0000
  O   O12       1.0  0.15440  0.79727  0.23895  1.0000
  O   O13       1.0  0.21984  0.43072  0.87452  1.0000
  O   O14       1.0  0.71982  0.06929  0.62549  1.0000
  O   O15       1.0  0.78016  0.56928  0.12547  1.0000
  O   O16       1.0  0.28018  0.93072  0.37451  1.0000
  O   O17       1.0  0.14158  0.96475  0.14017  1.0000
  O   O18       1.0  0.64158  0.53524  0.35982  1.0000
  O   O19       1.0  0.85842  0.03525  0.85983  1.0000
  O   O20       1.0  0.35841  0.46475  0.64018  1.0000
  O   O21       1.0  0.30075  0.84752  0.00876  1.0000
  O   O22       1.0  0.80075  0.65248  0.49124  1.0000
  O   O23       1.0  0.69924  0.15248  0.99124  1.0000
  O   O24       1.0  0.19925  0.34751  0.50876  1.0000
  O   O25       1.0  0.90654  0.86814  0.61847  1.0000
  O   O26       1.0  0.40654  0.63188  0.88153  1.0000
  O   O27       1.0  0.09346  0.13186  0.38153  1.0000
  O   O28       1.0  0.59347  0.36812  0.11847  1.0000
