data_image0
_chemical_formula_structural       Li8H24C16O24
_chemical_formula_sum              "Li8 H24 C16 O24"
_cell_length_a       4.91998
_cell_length_b       10.9939
_cell_length_c       15.7316
_cell_angle_alpha    90.001
_cell_angle_beta     90.0014
_cell_angle_gamma    90.0007

_space_group_name_H-M_alt    "P 1"
_space_group_IT_number       1

loop_
  _space_group_symop_operation_xyz
  'x, y, z'

loop_
  _atom_site_type_symbol
  _atom_site_label
  _atom_site_symmetry_multiplicity
  _atom_site_fract_x
  _atom_site_fract_y
  _atom_site_fract_z
  _atom_site_occupancy
  Li  Li1       1.0  0.97530  0.26554  0.44811  1.0000
  Li  Li2       1.0  0.52470  0.23446  0.94812  1.0000
  Li  Li3       1.0  0.47529  0.23446  0.55189  1.0000
  Li  Li4       1.0  0.02471  0.26555  0.05189  1.0000
  Li  Li5       1.0  0.02469  0.73446  0.55189  1.0000
  Li  Li6       1.0  0.47530  0.76554  0.05189  1.0000
  Li  Li7       1.0  0.52471  0.76554  0.44811  1.0000
  Li  Li8       1.0  0.97531  0.73446  0.94811  1.0000
  H   H1        1.0  0.15011  0.49405  0.39878  1.0000
  H   H2        1.0  0.34988  0.00596  0.89878  1.0000
  H   H3        1.0  0.65010  0.00596  0.60122  1.0000
  H   H4        1.0  0.84989  0.49404  0.10122  1.0000
  H   H5        1.0  0.84988  0.50595  0.60122  1.0000
  H   H6        1.0  0.65014  0.99404  0.10122  1.0000
  H   H7        1.0  0.34989  0.99404  0.39878  1.0000
  H   H8        1.0  0.15011  0.50595  0.89878  1.0000
  H   H9        1.0  0.84578  0.46184  0.38503  1.0000
  H   H10       1.0  0.65423  0.03817  0.88503  1.0000
  H   H11       1.0  0.34576  0.03817  0.61496  1.0000
  H   H12       1.0  0.15424  0.46184  0.11496  1.0000
  H   H13       1.0  0.15423  0.53816  0.61496  1.0000
  H   H14       1.0  0.34578  0.96183  0.11496  1.0000
  H   H15       1.0  0.65424  0.96184  0.38504  1.0000
  H   H16       1.0  0.84577  0.53815  0.88503  1.0000
  H   H17       1.0  0.79557  0.19715  0.28362  1.0000
  H   H18       1.0  0.70441  0.30285  0.78362  1.0000
  H   H19       1.0  0.29559  0.30286  0.71638  1.0000
  H   H20       1.0  0.20441  0.19714  0.21638  1.0000
  H   H21       1.0  0.20444  0.80286  0.71638  1.0000
  H   H22       1.0  0.29559  0.69715  0.21638  1.0000
  H   H23       1.0  0.70441  0.69715  0.28362  1.0000
  H   H24       1.0  0.79558  0.80286  0.78362  1.0000
  C   C1        1.0  0.44611  0.19860  0.37179  1.0000
  C   C2        1.0  0.05387  0.30140  0.87179  1.0000
  C   C3        1.0  0.94613  0.30140  0.62821  1.0000
  C   C4        1.0  0.55385  0.19861  0.12821  1.0000
  C   C5        1.0  0.55388  0.80139  0.62822  1.0000
  C   C6        1.0  0.94614  0.69860  0.12822  1.0000
  C   C7        1.0  0.05386  0.69860  0.37178  1.0000
  C   C8        1.0  0.44613  0.80139  0.87178  1.0000
  C   C9        1.0  0.57374  0.19499  0.28586  1.0000
  C   C10       1.0  0.92625  0.30501  0.78586  1.0000
  C   C11       1.0  0.07376  0.30501  0.71414  1.0000
  C   C12       1.0  0.42625  0.19500  0.21414  1.0000
  C   C13       1.0  0.42625  0.80500  0.71414  1.0000
  C   C14       1.0  0.07376  0.69499  0.21414  1.0000
  C   C15       1.0  0.92624  0.69500  0.28586  1.0000
  C   C16       1.0  0.57376  0.80500  0.78587  1.0000
  O   O1        1.0  0.02043  0.42605  0.39938  1.0000
  O   O2        1.0  0.47958  0.07395  0.89938  1.0000
  O   O3        1.0  0.52042  0.07396  0.60063  1.0000
  O   O4        1.0  0.97958  0.42605  0.10062  1.0000
  O   O5        1.0  0.97957  0.57395  0.60062  1.0000
  O   O6        1.0  0.52044  0.92605  0.10062  1.0000
  O   O7        1.0  0.47958  0.92605  0.39937  1.0000
  O   O8        1.0  0.02042  0.57395  0.89938  1.0000
  O   O9        1.0  0.20646  0.15705  0.38177  1.0000
  O   O10       1.0  0.29354  0.34295  0.88176  1.0000
  O   O11       1.0  0.70648  0.34295  0.61824  1.0000
  O   O12       1.0  0.79351  0.15705  0.11824  1.0000
  O   O13       1.0  0.79354  0.84295  0.61824  1.0000
  O   O14       1.0  0.70648  0.65705  0.11824  1.0000
  O   O15       1.0  0.29352  0.65705  0.38176  1.0000
  O   O16       1.0  0.20647  0.84295  0.88177  1.0000
  O   O17       1.0  0.58967  0.24236  0.43243  1.0000
  O   O18       1.0  0.91029  0.25765  0.93244  1.0000
  O   O19       1.0  0.08969  0.25764  0.56756  1.0000
  O   O20       1.0  0.41030  0.24236  0.06756  1.0000
  O   O21       1.0  0.41030  0.75764  0.56757  1.0000
  O   O22       1.0  0.08969  0.74236  0.06756  1.0000
  O   O23       1.0  0.91031  0.74236  0.43244  1.0000
  O   O24       1.0  0.58970  0.75764  0.93243  1.0000
