data_image0
_chemical_formula_structural       Li4H20C16O8
_chemical_formula_sum              "Li4 H20 C16 O8"
_cell_length_a       5.04668
_cell_length_b       8.5837
_cell_length_c       11.0819
_cell_angle_alpha    103.915
_cell_angle_beta     103.204
_cell_angle_gamma    89.9802

_space_group_name_H-M_alt    "P 1"
_space_group_IT_number       1

loop_
  _space_group_symop_operation_xyz
  'x, y, z'

loop_
  _atom_site_type_symbol
  _atom_site_label
  _atom_site_symmetry_multiplicity
  _atom_site_fract_x
  _atom_site_fract_y
  _atom_site_fract_z
  _atom_site_occupancy
  Li  Li1       1.0  0.09536  0.64782  0.49110  1.0000
  Li  Li2       1.0  0.60407  0.85218  0.50890  1.0000
  Li  Li3       1.0  0.90464  0.35218  0.50890  1.0000
  Li  Li4       1.0  0.39592  0.14782  0.49110  1.0000
  H   H1        1.0  0.12870  0.39627  0.27288  1.0000
  H   H2        1.0  0.85576  0.10358  0.72710  1.0000
  H   H3        1.0  0.87131  0.60373  0.72712  1.0000
  H   H4        1.0  0.14424  0.89642  0.27290  1.0000
  H   H5        1.0  0.66231  0.25592  0.21829  1.0000
  H   H6        1.0  0.44383  0.24412  0.78178  1.0000
  H   H7        1.0  0.33769  0.74408  0.78171  1.0000
  H   H8        1.0  0.55616  0.75588  0.21822  1.0000
  H   H9        1.0  0.33248  0.00794  0.13868  1.0000
  H   H10       1.0  0.19422  0.49211  0.86156  1.0000
  H   H11       1.0  0.66752  0.99206  0.86132  1.0000
  H   H12       1.0  0.80578  0.50789  0.13844  1.0000
  H   H13       1.0  0.29707  0.11096  0.01652  1.0000
  H   H14       1.0  0.28047  0.38878  0.98355  1.0000
  H   H15       1.0  0.70294  0.88904  0.98348  1.0000
  H   H16       1.0  0.71953  0.61122  0.01645  1.0000
  H   H17       1.0  0.05295  0.13257  0.11241  1.0000
  H   H18       1.0  0.94042  0.36764  0.88746  1.0000
  H   H19       1.0  0.94706  0.86743  0.88759  1.0000
  H   H20       1.0  0.05959  0.63236  0.11254  1.0000
  C   C1        1.0  0.52842  0.52081  0.36821  1.0000
  C   C2        1.0  0.16029  0.97920  0.63183  1.0000
  C   C3        1.0  0.47159  0.47919  0.63179  1.0000
  C   C4        1.0  0.83971  0.02080  0.36817  1.0000
  C   C5        1.0  0.34648  0.38627  0.27811  1.0000
  C   C6        1.0  0.06828  0.11364  0.72190  1.0000
  C   C7        1.0  0.65352  0.61373  0.72189  1.0000
  C   C8        1.0  0.93172  0.88636  0.27810  1.0000
  C   C9        1.0  0.44125  0.25923  0.20666  1.0000
  C   C10       1.0  0.23440  0.24075  0.79335  1.0000
  C   C11       1.0  0.55875  0.74077  0.79334  1.0000
  C   C12       1.0  0.76560  0.75925  0.20665  1.0000
  C   C13       1.0  0.27017  0.12139  0.11395  1.0000
  C   C14       1.0  0.15618  0.37859  0.88607  1.0000
  C   C15       1.0  0.72983  0.87861  0.88605  1.0000
  C   C16       1.0  0.84382  0.62141  0.11393  1.0000
  O   O1        1.0  0.41595  0.64619  0.41815  1.0000
  O   O2        1.0  0.99796  0.85379  0.58177  1.0000
  O   O3        1.0  0.58405  0.35381  0.58185  1.0000
  O   O4        1.0  0.00204  0.14621  0.41823  1.0000
  O   O5        1.0  0.78591  0.50709  0.39266  1.0000
  O   O6        1.0  0.39333  0.99298  0.60747  1.0000
  O   O7        1.0  0.21409  0.49291  0.60734  1.0000
  O   O8        1.0  0.60667  0.00702  0.39253  1.0000
