data_image0
_chemical_formula_structural       Cu4Mo6H16C12N12O20
_chemical_formula_sum              "Cu4 Mo6 H16 C12 N12 O20"
_cell_length_a       8.27203
_cell_length_b       10.4164
_cell_length_c       10.5302
_cell_angle_alpha    114.283
_cell_angle_beta     103.007
_cell_angle_gamma    92.2688

_space_group_name_H-M_alt    "P 1"
_space_group_IT_number       1

loop_
  _space_group_symop_operation_xyz
  'x, y, z'

loop_
  _atom_site_type_symbol
  _atom_site_label
  _atom_site_symmetry_multiplicity
  _atom_site_fract_x
  _atom_site_fract_y
  _atom_site_fract_z
  _atom_site_occupancy
  Cu  Cu1       1.0  0.66530  0.89902  0.40689  1.0000
  Cu  Cu2       1.0  0.33469  0.10098  0.59311  1.0000
  Cu  Cu3       1.0  0.09261  0.88905  0.96684  1.0000
  Cu  Cu4       1.0  0.90739  0.11096  0.03316  1.0000
  Mo  Mo1       1.0  0.43456  0.66568  0.05533  1.0000
  Mo  Mo2       1.0  0.56545  0.33432  0.94467  1.0000
  Mo  Mo3       1.0  0.81541  0.56861  0.25275  1.0000
  Mo  Mo4       1.0  0.18459  0.43139  0.74725  1.0000
  Mo  Mo5       1.0  0.90817  0.57406  0.90405  1.0000
  Mo  Mo6       1.0  0.09182  0.42593  0.09595  1.0000
  H   H1        1.0  0.81305  0.88558  0.14934  1.0000
  H   H2        1.0  0.18695  0.11443  0.85066  1.0000
  H   H3        1.0  0.14008  0.89578  0.27555  1.0000
  H   H4        1.0  0.85992  0.10421  0.72445  1.0000
  H   H5        1.0  0.53561  0.36072  0.40299  1.0000
  H   H6        1.0  0.46439  0.63928  0.59701  1.0000
  H   H7        1.0  0.47101  0.35555  0.55196  1.0000
  H   H8        1.0  0.52899  0.64445  0.44804  1.0000
  H   H9        1.0  0.38158  0.17270  0.15164  1.0000
  H   H10       1.0  0.61842  0.82730  0.84837  1.0000
  H   H11       1.0  0.85476  0.33378  0.34019  1.0000
  H   H12       1.0  0.14524  0.66622  0.65982  1.0000
  H   H13       1.0  0.67527  0.18846  0.57063  1.0000
  H   H14       1.0  0.32473  0.81153  0.42937  1.0000
  H   H15       1.0  0.77684  0.35126  0.58818  1.0000
  H   H16       1.0  0.22316  0.64873  0.41182  1.0000
  C   C1        1.0  0.80837  0.99427  0.22230  1.0000
  C   C2        1.0  0.19163  0.00572  0.77770  1.0000
  C   C3        1.0  0.21990  0.98348  0.27982  1.0000
  C   C4        1.0  0.78010  0.01651  0.72018  1.0000
  C   C5        1.0  0.52046  0.29470  0.45955  1.0000
  C   C6        1.0  0.47954  0.70530  0.54045  1.0000
  C   C7        1.0  0.34151  0.12197  0.21400  1.0000
  C   C8        1.0  0.65849  0.87803  0.78600  1.0000
  C   C9        1.0  0.83103  0.22209  0.31681  1.0000
  C   C10       1.0  0.16897  0.77791  0.68319  1.0000
  C   C11       1.0  0.68889  0.25384  0.51341  1.0000
  C   C12       1.0  0.31111  0.74616  0.48659  1.0000
  N   N1        1.0  0.76115  0.17408  0.39537  1.0000
  N   N2        1.0  0.23885  0.82592  0.60464  1.0000
  N   N3        1.0  0.74702  0.02852  0.33661  1.0000
  N   N4        1.0  0.25298  0.97148  0.66339  1.0000
  N   N5        1.0  0.31978  0.08334  0.40186  1.0000
  N   N6        1.0  0.68023  0.91665  0.59814  1.0000
  N   N7        1.0  0.22908  0.00389  0.16215  1.0000
  N   N8        1.0  0.77092  0.99611  0.83785  1.0000
  N   N9        1.0  0.86051  0.11101  0.20617  1.0000
  N   N10       1.0  0.13949  0.88899  0.79383  1.0000
  N   N11       1.0  0.39633  0.17131  0.35802  1.0000
  N   N12       1.0  0.60367  0.82869  0.64198  1.0000
  O   O1        1.0  0.61800  0.55229  0.10316  1.0000
  O   O2        1.0  0.38200  0.44771  0.89684  1.0000
  O   O3        1.0  0.02176  0.49672  0.27794  1.0000
  O   O4        1.0  0.97824  0.50327  0.72205  1.0000
  O   O5        1.0  0.85539  0.75225  0.35425  1.0000
  O   O6        1.0  0.14461  0.24775  0.64575  1.0000
  O   O7        1.0  0.72061  0.50748  0.35188  1.0000
  O   O8        1.0  0.27939  0.49252  0.64812  1.0000
  O   O9        1.0  0.96040  0.59988  0.09802  1.0000
  O   O10       1.0  0.03960  0.40012  0.90198  1.0000
  O   O11       1.0  0.46579  0.78373  0.23860  1.0000
  O   O12       1.0  0.53421  0.21626  0.76140  1.0000
  O   O13       1.0  0.21654  0.65292  0.95942  1.0000
  O   O14       1.0  0.78346  0.34708  0.04058  1.0000
  O   O15       1.0  0.70298  0.49152  0.83814  1.0000
  O   O16       1.0  0.29702  0.50848  0.16186  1.0000
  O   O17       1.0  0.90158  0.75284  0.93161  1.0000
  O   O18       1.0  0.09842  0.24716  0.06839  1.0000
  O   O19       1.0  0.54126  0.75586  0.98713  1.0000
  O   O20       1.0  0.45874  0.24414  0.01287  1.0000
