data_image0
_chemical_formula_structural       Cu4Mo6H20C14N12O20
_chemical_formula_sum              "Cu4 Mo6 H20 C14 N12 O20"
_cell_length_a       7.60322
_cell_length_b       11.2068
_cell_length_c       11.2465
_cell_angle_alpha    68.3214
_cell_angle_beta     72.7104
_cell_angle_gamma    76.4653

_space_group_name_H-M_alt    "P 1"
_space_group_IT_number       1

loop_
  _space_group_symop_operation_xyz
  'x, y, z'

loop_
  _atom_site_type_symbol
  _atom_site_label
  _atom_site_symmetry_multiplicity
  _atom_site_fract_x
  _atom_site_fract_y
  _atom_site_fract_z
  _atom_site_occupancy
  Cu  Cu1       1.0  0.26133  0.12599  0.21422  1.0000
  Cu  Cu2       1.0  0.73867  0.87401  0.78578  1.0000
  Cu  Cu3       1.0  0.26769  0.95371  0.77495  1.0000
  Cu  Cu4       1.0  0.73231  0.04629  0.22505  1.0000
  Mo  Mo1       1.0  0.93782  0.41623  0.17694  1.0000
  Mo  Mo2       1.0  0.06218  0.58377  0.82306  1.0000
  Mo  Mo3       1.0  0.44862  0.40367  0.17487  1.0000
  Mo  Mo4       1.0  0.55138  0.59633  0.82513  1.0000
  Mo  Mo5       1.0  0.16878  0.66157  0.06027  1.0000
  Mo  Mo6       1.0  0.83122  0.33843  0.93973  1.0000
  H   H1        1.0  0.14709  0.75737  0.41057  1.0000
  H   H2        1.0  0.85291  0.24263  0.58943  1.0000
  H   H3        1.0  0.27522  0.86700  0.27078  1.0000
  H   H4        1.0  0.72479  0.13300  0.72922  1.0000
  H   H5        1.0  0.42541  0.63171  0.32075  1.0000
  H   H6        1.0  0.57459  0.36829  0.67925  1.0000
  H   H7        1.0  0.44269  0.62947  0.47317  1.0000
  H   H8        1.0  0.55731  0.37053  0.52683  1.0000
  H   H9        1.0  0.58249  0.70937  0.07982  1.0000
  H   H10       1.0  0.41751  0.29063  0.92018  1.0000
  H   H11       1.0  0.33349  0.74632  0.62749  1.0000
  H   H12       1.0  0.66651  0.25368  0.37251  1.0000
  H   H13       1.0  0.74416  0.66146  0.32099  1.0000
  H   H14       1.0  0.25584  0.33854  0.67901  1.0000
  H   H15       1.0  0.64829  0.80589  0.36233  1.0000
  H   H16       1.0  0.35171  0.19410  0.63767  1.0000
  H   H17       1.0  0.22020  0.15475  0.48785  1.0000
  H   H18       1.0  0.77981  0.84525  0.51215  1.0000
  H   H19       1.0  0.80108  0.06335  0.93239  1.0000
  H   H20       1.0  0.19892  0.93665  0.06761  1.0000
  C   C1        1.0  0.27698  0.79993  0.37053  1.0000
  C   C2        1.0  0.72303  0.20007  0.62947  1.0000
  C   C3        1.0  0.44311  0.69338  0.37182  1.0000
  C   C4        1.0  0.55690  0.30662  0.62818  1.0000
  C   C5        1.0  0.63608  0.79460  0.07255  1.0000
  C   C6        1.0  0.36392  0.20540  0.92745  1.0000
  C   C7        1.0  0.29956  0.84599  0.56908  1.0000
  C   C8        1.0  0.70043  0.15401  0.43092  1.0000
  C   C9        1.0  0.63040  0.74289  0.31279  1.0000
  C   C10       1.0  0.36960  0.25711  0.68721  1.0000
  C   C11       1.0  0.24226  0.05305  0.49625  1.0000
  C   C12       1.0  0.75774  0.94695  0.50375  1.0000
  C   C13       1.0  0.74533  0.97485  0.99768  1.0000
  C   C14       1.0  0.25467  0.02515  0.00232  1.0000
  N   N1        1.0  0.24313  0.01408  0.39767  1.0000
  N   N2        1.0  0.75687  0.98592  0.60233  1.0000
  N   N3        1.0  0.27680  0.95210  0.60415  1.0000
  N   N4        1.0  0.72320  0.04790  0.39585  1.0000
  N   N5        1.0  0.65366  0.82277  0.17398  1.0000
  N   N6        1.0  0.34634  0.17723  0.82602  1.0000
  N   N7        1.0  0.69202  0.88951  0.96001  1.0000
  N   N8        1.0  0.30798  0.11049  0.03999  1.0000
  N   N9        1.0  0.27835  0.88162  0.44625  1.0000
  N   N10       1.0  0.72165  0.11838  0.55375  1.0000
  N   N11       1.0  0.72238  0.93843  0.12764  1.0000
  N   N12       1.0  0.27762  0.06157  0.87236  1.0000
  O   O1        1.0  0.16638  0.81479  0.93881  1.0000
  O   O2        1.0  0.83362  0.18521  0.06119  1.0000
  O   O3        1.0  0.44783  0.23679  0.20863  1.0000
  O   O4        1.0  0.55218  0.76321  0.79137  1.0000
  O   O5        1.0  0.83140  0.44725  0.32187  1.0000
  O   O6        1.0  0.16860  0.55275  0.67813  1.0000
  O   O7        1.0  0.41486  0.41768  0.32722  1.0000
  O   O8        1.0  0.58514  0.58232  0.67278  1.0000
  O   O9        1.0  0.02659  0.25063  0.22803  1.0000
  O   O10       1.0  0.97341  0.74937  0.77197  1.0000
  O   O11       1.0  0.09537  0.69698  0.20531  1.0000
  O   O12       1.0  0.90463  0.30302  0.79469  1.0000
  O   O13       1.0  0.43191  0.60047  0.04941  1.0000
  O   O14       1.0  0.56809  0.39954  0.95059  1.0000
  O   O15       1.0  0.95759  0.60316  0.04634  1.0000
  O   O16       1.0  0.04241  0.39684  0.95366  1.0000
  O   O17       1.0  0.19704  0.45156  0.15146  1.0000
  O   O18       1.0  0.80296  0.54844  0.84854  1.0000
  O   O19       1.0  0.71935  0.40884  0.12896  1.0000
  O   O20       1.0  0.28065  0.59116  0.87104  1.0000
