data_image0
_chemical_formula_structural       La4H28C24O32
_chemical_formula_sum              "La4 H28 C24 O32"
_cell_length_a       8.77776
_cell_length_b       9.45692
_cell_length_c       12.9199
_cell_angle_alpha    75.7531
_cell_angle_beta     70.1577
_cell_angle_gamma    62.3439

_space_group_name_H-M_alt    "P 1"
_space_group_IT_number       1

loop_
  _space_group_symop_operation_xyz
  'x, y, z'

loop_
  _atom_site_type_symbol
  _atom_site_label
  _atom_site_symmetry_multiplicity
  _atom_site_fract_x
  _atom_site_fract_y
  _atom_site_fract_z
  _atom_site_occupancy
  La  La1       1.0  0.00011  0.49781  0.67096  1.0000
  La  La2       1.0  0.83115  0.99789  0.17090  1.0000
  La  La3       1.0  0.99989  0.50219  0.32904  1.0000
  La  La4       1.0  0.16885  0.00211  0.82910  1.0000
  H   H1        1.0  0.32823  0.47933  0.03884  1.0000
  H   H2        1.0  0.15388  0.97928  0.53876  1.0000
  H   H3        1.0  0.67177  0.52067  0.96116  1.0000
  H   H4        1.0  0.84612  0.02072  0.46124  1.0000
  H   H5        1.0  0.16827  0.47140  0.99040  1.0000
  H   H6        1.0  0.37015  0.97141  0.49037  1.0000
  H   H7        1.0  0.83173  0.52860  0.00960  1.0000
  H   H8        1.0  0.62985  0.02859  0.50963  1.0000
  H   H9        1.0  0.57989  0.37809  0.88365  1.0000
  H   H10       1.0  0.15843  0.87824  0.38350  1.0000
  H   H11       1.0  0.42011  0.62191  0.11635  1.0000
  H   H12       1.0  0.84157  0.12176  0.61650  1.0000
  H   H13       1.0  0.44259  0.34337  0.82791  1.0000
  H   H14       1.0  0.38618  0.84344  0.32787  1.0000
  H   H15       1.0  0.55741  0.65663  0.17209  1.0000
  H   H16       1.0  0.61382  0.15656  0.67213  1.0000
  H   H17       1.0  0.51026  0.68830  0.82002  1.0000
  H   H18       1.0  0.98145  0.18838  0.32000  1.0000
  H   H19       1.0  0.48974  0.31170  0.17998  1.0000
  H   H20       1.0  0.01855  0.81162  0.68000  1.0000
  H   H21       1.0  0.37782  0.48133  0.60588  1.0000
  H   H22       1.0  0.53509  0.98131  0.10588  1.0000
  H   H23       1.0  0.62218  0.51867  0.39412  1.0000
  H   H24       1.0  0.46491  0.01869  0.89412  1.0000
  H   H25       1.0  0.36725  0.45191  0.49225  1.0000
  H   H26       1.0  0.68859  0.95184  0.99224  1.0000
  H   H27       1.0  0.63275  0.54809  0.50775  1.0000
  H   H28       1.0  0.31141  0.04815  0.00776  1.0000
  C   C1        1.0  0.20140  0.64570  0.79496  1.0000
  C   C2        1.0  0.35798  0.14579  0.29497  1.0000
  C   C3        1.0  0.79860  0.35430  0.20504  1.0000
  C   C4        1.0  0.64202  0.85421  0.70503  1.0000
  C   C5        1.0  0.33209  0.58388  0.86878  1.0000
  C   C6        1.0  0.21537  0.08396  0.36875  1.0000
  C   C7        1.0  0.66791  0.41612  0.13122  1.0000
  C   C8        1.0  0.78463  0.91604  0.63125  1.0000
  C   C9        1.0  0.23249  0.54838  0.98846  1.0000
  C   C10       1.0  0.23087  0.04837  0.48843  1.0000
  C   C11       1.0  0.76751  0.45162  0.01154  1.0000
  C   C12       1.0  0.76913  0.95163  0.51157  1.0000
  C   C13       1.0  0.09123  0.69522  0.04569  1.0000
  C   C14       1.0  0.16794  0.19516  0.54576  1.0000
  C   C15       1.0  0.90877  0.30478  0.95431  1.0000
  C   C16       1.0  0.83206  0.80484  0.45424  1.0000
  C   C17       1.0  0.49364  0.43036  0.82709  1.0000
  C   C18       1.0  0.24899  0.93047  0.32700  1.0000
  C   C19       1.0  0.50636  0.56964  0.17291  1.0000
  C   C20       1.0  0.75101  0.06953  0.67300  1.0000
  C   C21       1.0  0.60059  0.46036  0.70914  1.0000
  C   C22       1.0  0.23004  0.96045  0.20902  1.0000
  C   C23       1.0  0.39941  0.53964  0.29086  1.0000
  C   C24       1.0  0.76996  0.03955  0.79098  1.0000
  O   O1        1.0  0.14003  0.55102  0.79034  1.0000
  O   O2        1.0  0.51865  0.05117  0.29031  1.0000
  O   O3        1.0  0.85996  0.44898  0.20966  1.0000
  O   O4        1.0  0.48135  0.94883  0.70969  1.0000
  O   O5        1.0  0.15776  0.78953  0.74755  1.0000
  O   O6        1.0  0.30506  0.28967  0.24759  1.0000
  O   O7        1.0  0.84223  0.21047  0.25245  1.0000
  O   O8        1.0  0.69494  0.71033  0.75241  1.0000
  O   O9        1.0  0.38734  0.70460  0.86930  1.0000
  O   O10       1.0  0.03887  0.20470  0.36925  1.0000
  O   O11       1.0  0.61266  0.29540  0.13070  1.0000
  O   O12       1.0  0.96113  0.79530  0.63075  1.0000
  O   O13       1.0  0.04754  0.83616  0.99423  1.0000
  O   O14       1.0  0.12212  0.33613  0.49433  1.0000
  O   O15       1.0  0.95245  0.16384  0.00577  1.0000
  O   O16       1.0  0.87788  0.66387  0.50567  1.0000
  O   O17       1.0  0.01517  0.67574  0.14795  1.0000
  O   O18       1.0  0.16100  0.17569  0.64806  1.0000
  O   O19       1.0  0.98483  0.32426  0.85205  1.0000
  O   O20       1.0  0.83901  0.82431  0.35194  1.0000
  O   O21       1.0  0.76657  0.41637  0.69014  1.0000
  O   O22       1.0  0.12712  0.91644  0.18993  1.0000
  O   O23       1.0  0.23343  0.58363  0.30986  1.0000
  O   O24       1.0  0.87287  0.08356  0.81007  1.0000
  O   O25       1.0  0.51536  0.52980  0.63538  1.0000
  O   O26       1.0  0.31962  0.02985  0.13531  1.0000
  O   O27       1.0  0.48464  0.47020  0.36462  1.0000
  O   O28       1.0  0.68039  0.97015  0.86469  1.0000
  O   O29       1.0  0.31078  0.44866  0.57455  1.0000
  O   O30       1.0  0.66610  0.94864  0.07454  1.0000
  O   O31       1.0  0.68922  0.55134  0.42545  1.0000
  O   O32       1.0  0.33390  0.05136  0.92547  1.0000
