data_image0
_chemical_formula_structural       Tl2H32C40N16
_chemical_formula_sum              "Tl2 H32 C40 N16"
_cell_length_a       3.85833
_cell_length_b       15.8299
_cell_length_c       15.83
_cell_angle_alpha    90.001
_cell_angle_beta     89.9998
_cell_angle_gamma    90.0015

_space_group_name_H-M_alt    "P 1"
_space_group_IT_number       1

loop_
  _space_group_symop_operation_xyz
  'x, y, z'

loop_
  _atom_site_type_symbol
  _atom_site_label
  _atom_site_symmetry_multiplicity
  _atom_site_fract_x
  _atom_site_fract_y
  _atom_site_fract_z
  _atom_site_occupancy
  Tl  Tl1       1.0  0.11147  0.25001  0.24999  1.0000
  Tl  Tl2       1.0  0.88854  0.74999  0.75001  1.0000
  H   H1        1.0  0.99973  0.35154  0.84021  1.0000
  H   H2        1.0  0.99971  0.65978  0.35154  1.0000
  H   H3        1.0  0.99973  0.14846  0.65979  1.0000
  H   H4        1.0  0.99979  0.84022  0.14846  1.0000
  H   H5        1.0  0.00028  0.64845  0.15979  1.0000
  H   H6        1.0  0.00028  0.34022  0.64845  1.0000
  H   H7        1.0  0.00027  0.85153  0.34021  1.0000
  H   H8        1.0  0.00022  0.15978  0.85154  1.0000
  H   H9        1.0  0.98248  0.44986  0.78437  1.0000
  H   H10       1.0  0.98247  0.71564  0.44985  1.0000
  H   H11       1.0  0.98248  0.05016  0.71563  1.0000
  H   H12       1.0  0.98254  0.78436  0.05016  1.0000
  H   H13       1.0  0.01753  0.55014  0.21564  1.0000
  H   H14       1.0  0.01753  0.28437  0.55015  1.0000
  H   H15       1.0  0.01753  0.94984  0.28436  1.0000
  H   H16       1.0  0.01748  0.21564  0.94984  1.0000
  H   H17       1.0  0.38273  0.40928  0.82292  1.0000
  H   H18       1.0  0.38270  0.67708  0.40927  1.0000
  H   H19       1.0  0.38270  0.09074  0.67708  1.0000
  H   H20       1.0  0.38276  0.82294  0.09073  1.0000
  H   H21       1.0  0.61727  0.59072  0.17708  1.0000
  H   H22       1.0  0.61730  0.32292  0.59073  1.0000
  H   H23       1.0  0.61729  0.90926  0.32292  1.0000
  H   H24       1.0  0.61725  0.17707  0.90927  1.0000
  H   H25       1.0  0.24741  0.43694  0.13167  1.0000
  H   H26       1.0  0.24744  0.36833  0.43694  1.0000
  H   H27       1.0  0.24740  0.06306  0.36833  1.0000
  H   H28       1.0  0.24736  0.13168  0.06306  1.0000
  H   H29       1.0  0.75258  0.56305  0.86834  1.0000
  H   H30       1.0  0.75257  0.63168  0.56306  1.0000
  H   H31       1.0  0.75260  0.93694  0.63167  1.0000
  H   H32       1.0  0.75264  0.86832  0.93694  1.0000
  C   C1        1.0  0.13509  0.46556  0.07519  1.0000
  C   C2        1.0  0.13509  0.42482  0.46557  1.0000
  C   C3        1.0  0.13508  0.03443  0.42481  1.0000
  C   C4        1.0  0.13506  0.07520  0.03444  1.0000
  C   C5        1.0  0.86489  0.53444  0.92482  1.0000
  C   C6        1.0  0.86491  0.57519  0.53443  1.0000
  C   C7        1.0  0.86493  0.96557  0.57519  1.0000
  C   C8        1.0  0.86493  0.92481  0.96556  1.0000
  C   C9        1.0  0.19311  0.42464  0.99546  1.0000
  C   C10       1.0  0.19313  0.50454  0.42464  1.0000
  C   C11       1.0  0.19311  0.07536  0.50454  1.0000
  C   C12       1.0  0.19311  0.99547  0.07536  1.0000
  C   C13       1.0  0.80687  0.57536  0.00454  1.0000
  C   C14       1.0  0.80686  0.49547  0.57537  1.0000
  C   C15       1.0  0.80690  0.92464  0.49546  1.0000
  C   C16       1.0  0.80690  0.00453  0.92464  1.0000
  C   C17       1.0  0.50968  0.31068  0.04873  1.0000
  C   C18       1.0  0.50971  0.45126  0.31069  1.0000
  C   C19       1.0  0.50970  0.18932  0.45126  1.0000
  C   C20       1.0  0.50969  0.04875  0.18932  1.0000
  C   C21       1.0  0.49030  0.68932  0.95127  1.0000
  C   C22       1.0  0.49029  0.54874  0.68932  1.0000
  C   C23       1.0  0.49030  0.81068  0.54875  1.0000
  C   C24       1.0  0.49030  0.95125  0.81068  1.0000
  C   C25       1.0  0.05059  0.46099  0.91858  1.0000
  C   C26       1.0  0.05061  0.58142  0.46099  1.0000
  C   C27       1.0  0.05060  0.03902  0.58142  1.0000
  C   C28       1.0  0.05063  0.91858  0.03902  1.0000
  C   C29       1.0  0.94939  0.53900  0.08142  1.0000
  C   C30       1.0  0.94939  0.41859  0.53901  1.0000
  C   C31       1.0  0.94940  0.96098  0.41857  1.0000
  C   C32       1.0  0.94937  0.08142  0.96098  1.0000
  C   C33       1.0  0.10517  0.41601  0.83667  1.0000
  C   C34       1.0  0.10515  0.66333  0.41600  1.0000
  C   C35       1.0  0.10516  0.08400  0.66333  1.0000
  C   C36       1.0  0.10521  0.83667  0.08400  1.0000
  C   C37       1.0  0.89484  0.58398  0.16333  1.0000
  C   C38       1.0  0.89484  0.33667  0.58400  1.0000
  C   C39       1.0  0.89485  0.91600  0.33666  1.0000
  C   C40       1.0  0.89480  0.16333  0.91600  1.0000
  N   N1        1.0  0.37489  0.35330  0.98673  1.0000
  N   N2        1.0  0.37491  0.51326  0.35330  1.0000
  N   N3        1.0  0.37492  0.14671  0.51326  1.0000
  N   N4        1.0  0.37489  0.98675  0.14670  1.0000
  N   N5        1.0  0.62509  0.64669  0.01327  1.0000
  N   N6        1.0  0.62509  0.48674  0.64670  1.0000
  N   N7        1.0  0.62508  0.85329  0.48674  1.0000
  N   N8        1.0  0.62511  0.01325  0.85330  1.0000
  N   N9        1.0  0.64270  0.26330  0.09670  1.0000
  N   N10       1.0  0.64275  0.40329  0.26330  1.0000
  N   N11       1.0  0.64273  0.23670  0.40329  1.0000
  N   N12       1.0  0.64274  0.09672  0.23671  1.0000
  N   N13       1.0  0.35729  0.73670  0.90330  1.0000
  N   N14       1.0  0.35726  0.59671  0.73670  1.0000
  N   N15       1.0  0.35727  0.76330  0.59671  1.0000
  N   N16       1.0  0.35725  0.90328  0.76329  1.0000
