data_image0
_chemical_formula_structural       Cu3P4H18C4O18
_chemical_formula_sum              "Cu3 P4 H18 C4 O18"
_cell_length_a       6.27969
_cell_length_b       8.88242
_cell_length_c       9.30283
_cell_angle_alpha    101.039
_cell_angle_beta     100.818
_cell_angle_gamma    103.896

_space_group_name_H-M_alt    "P 1"
_space_group_IT_number       1

loop_
  _space_group_symop_operation_xyz
  'x, y, z'

loop_
  _atom_site_type_symbol
  _atom_site_label
  _atom_site_symmetry_multiplicity
  _atom_site_fract_x
  _atom_site_fract_y
  _atom_site_fract_z
  _atom_site_occupancy
  Cu  Cu1       1.0  1.00000  0.00000  0.00000  1.0000
  Cu  Cu2       1.0  0.29759  0.57234  0.80454  1.0000
  Cu  Cu3       1.0  0.70241  0.42765  0.19546  1.0000
  P   P1        1.0  0.18558  0.88605  0.73068  1.0000
  P   P2        1.0  0.81442  0.11395  0.26932  1.0000
  P   P3        1.0  0.84837  0.65093  0.82035  1.0000
  P   P4        1.0  0.15162  0.34906  0.17964  1.0000
  H   H1        1.0  0.81439  0.75299  0.44389  1.0000
  H   H2        1.0  0.18561  0.24701  0.55611  1.0000
  H   H3        1.0  0.88079  0.58674  0.50339  1.0000
  H   H4        1.0  0.11922  0.41326  0.49661  1.0000
  H   H5        1.0  0.61260  0.61942  0.50457  1.0000
  H   H6        1.0  0.38740  0.38058  0.49543  1.0000
  H   H7        1.0  0.21135  0.94148  0.51120  1.0000
  H   H8        1.0  0.78865  0.05852  0.48880  1.0000
  H   H9        1.0  0.60908  0.84719  0.71089  1.0000
  H   H10       1.0  0.39092  0.15281  0.28911  1.0000
  H   H11       1.0  0.41296  0.33205  0.85378  1.0000
  H   H12       1.0  0.58704  0.66795  0.14622  1.0000
  H   H13       1.0  0.16952  0.31008  0.88820  1.0000
  H   H14       1.0  0.83047  0.68992  0.11180  1.0000
  H   H15       1.0  0.24181  0.75238  0.05544  1.0000
  H   H16       1.0  0.75819  0.24762  0.94456  1.0000
  H   H17       1.0  0.49575  0.84356  0.05871  1.0000
  H   H18       1.0  0.50425  0.15644  0.94129  1.0000
  C   C1        1.0  0.88374  0.77978  0.68688  1.0000
  C   C2        1.0  0.11626  0.22022  0.31312  1.0000
  C   C3        1.0  0.79388  0.67922  0.52484  1.0000
  C   C4        1.0  0.20613  0.32079  0.47516  1.0000
  O   O1        1.0  0.22671  0.99694  0.61575  1.0000
  O   O2        1.0  0.77330  0.00306  0.38425  1.0000
  O   O3        1.0  0.24586  0.00123  0.88717  1.0000
  O   O4        1.0  0.75414  0.99877  0.11284  1.0000
  O   O5        1.0  0.32207  0.76527  0.71115  1.0000
  O   O6        1.0  0.67794  0.23474  0.28885  1.0000
  O   O7        1.0  0.95182  0.76813  0.98192  1.0000
  O   O8        1.0  0.04816  0.23187  0.01808  1.0000
  O   O9        1.0  0.97768  0.52666  0.79251  1.0000
  O   O10       1.0  0.02233  0.47334  0.20749  1.0000
  O   O11       1.0  0.59735  0.57018  0.78828  1.0000
  O   O12       1.0  0.40264  0.42982  0.21171  1.0000
  O   O13       1.0  0.77147  0.90218  0.72002  1.0000
  O   O14       1.0  0.22853  0.09782  0.27998  1.0000
  O   O15       1.0  0.26203  0.34935  0.81963  1.0000
  O   O16       1.0  0.73797  0.65065  0.18037  1.0000
  O   O17       1.0  0.39036  0.73710  0.04842  1.0000
  O   O18       1.0  0.60964  0.26291  0.95158  1.0000
