data_image0
_chemical_formula_structural       Cu2H18C22N12
_chemical_formula_sum              "Cu2 H18 C22 N12"
_cell_length_a       5.77221
_cell_length_b       9.37506
_cell_length_c       10.6023
_cell_angle_alpha    70.3346
_cell_angle_beta     76.0712
_cell_angle_gamma    80.5981

_space_group_name_H-M_alt    "P 1"
_space_group_IT_number       1

loop_
  _space_group_symop_operation_xyz
  'x, y, z'

loop_
  _atom_site_type_symbol
  _atom_site_label
  _atom_site_symmetry_multiplicity
  _atom_site_fract_x
  _atom_site_fract_y
  _atom_site_fract_z
  _atom_site_occupancy
  Cu  Cu1       1.0  0.79085  0.45448  0.41221  1.0000
  Cu  Cu2       1.0  0.20918  0.54552  0.58779  1.0000
  H   H1        1.0  0.90680  0.12170  0.42680  1.0000
  H   H2        1.0  0.09322  0.87829  0.57319  1.0000
  H   H3        1.0  0.15481  0.90862  0.35963  1.0000
  H   H4        1.0  0.84520  0.09137  0.64036  1.0000
  H   H5        1.0  0.64090  0.89513  0.13032  1.0000
  H   H6        1.0  0.35909  0.10489  0.86967  1.0000
  H   H7        1.0  0.39023  0.10614  0.20025  1.0000
  H   H8        1.0  0.60977  0.89387  0.79975  1.0000
  H   H9        1.0  0.24234  0.79419  0.13231  1.0000
  H   H10       1.0  0.75767  0.20582  0.86766  1.0000
  H   H11       1.0  0.12189  0.66973  0.29418  1.0000
  H   H12       1.0  0.87813  0.33028  0.70579  1.0000
  H   H13       1.0  0.07380  0.80592  0.92534  1.0000
  H   H14       1.0  0.92614  0.19406  0.07463  1.0000
  H   H15       1.0  0.74497  0.64882  0.89052  1.0000
  H   H16       1.0  0.25493  0.35116  0.10952  1.0000
  H   H17       1.0  0.55679  0.47742  0.15565  1.0000
  H   H18       1.0  0.44313  0.52259  0.84441  1.0000
  C   C1        1.0  0.62873  0.12807  0.32022  1.0000
  C   C2        1.0  0.37130  0.87192  0.67979  1.0000
  C   C3        1.0  0.84628  0.07168  0.36318  1.0000
  C   C4        1.0  0.15374  0.92832  0.63681  1.0000
  C   C5        1.0  0.98745  0.95265  0.32369  1.0000
  C   C6        1.0  0.01256  0.04735  0.67630  1.0000
  C   C7        1.0  0.91623  0.88684  0.24029  1.0000
  C   C8        1.0  0.08379  0.11316  0.75970  1.0000
  C   C9        1.0  0.70027  0.94431  0.19558  1.0000
  C   C10       1.0  0.29972  0.05570  0.80441  1.0000
  C   C11       1.0  0.55846  0.06328  0.23479  1.0000
  C   C12       1.0  0.44156  0.93672  0.76521  1.0000
  C   C13       1.0  0.46624  0.24471  0.36756  1.0000
  C   C14       1.0  0.53379  0.75529  0.63244  1.0000
  C   C15       1.0  0.07379  0.75593  0.20205  1.0000
  C   C16       1.0  0.92621  0.24406  0.79793  1.0000
  C   C17       1.0  0.95474  0.72534  0.00017  1.0000
  C   C18       1.0  0.04522  0.27465  0.99983  1.0000
  C   C19       1.0  0.78410  0.64625  0.98638  1.0000
  C   C20       1.0  0.21587  0.35375  0.01365  1.0000
  C   C21       1.0  0.69060  0.55843  0.12031  1.0000
  C   C22       1.0  0.30937  0.44156  0.87971  1.0000
  N   N1        1.0  0.50876  0.33527  0.43491  1.0000
  N   N2        1.0  0.49128  0.66472  0.56509  1.0000
  N   N3        1.0  0.29434  0.41277  0.46542  1.0000
  N   N4        1.0  0.70569  0.58722  0.53459  1.0000
  N   N5        1.0  0.13291  0.37181  0.41543  1.0000
  N   N6        1.0  0.86712  0.62819  0.58458  1.0000
  N   N7        1.0  0.23640  0.26892  0.35317  1.0000
  N   N8        1.0  0.76362  0.73108  0.64684  1.0000
  N   N9        1.0  0.95914  0.68286  0.13555  1.0000
  N   N10       1.0  0.04087  0.31713  0.86444  1.0000
  N   N11       1.0  0.79586  0.58128  0.21132  1.0000
  N   N12       1.0  0.20414  0.41874  0.78869  1.0000
