data_image0
_chemical_formula_structural       Hg3H30C38S4N10O4
_chemical_formula_sum              "Hg3 H30 C38 S4 N10 O4"
_cell_length_a       8.88146
_cell_length_b       10.4111
_cell_length_c       12.1341
_cell_angle_alpha    68.8649
_cell_angle_beta     85.791
_cell_angle_gamma    84.3325

_space_group_name_H-M_alt    "P 1"
_space_group_IT_number       1

loop_
  _space_group_symop_operation_xyz
  'x, y, z'

loop_
  _atom_site_type_symbol
  _atom_site_label
  _atom_site_symmetry_multiplicity
  _atom_site_fract_x
  _atom_site_fract_y
  _atom_site_fract_z
  _atom_site_occupancy
  Hg  Hg1       1.0  1.00000  0.00000  1.00000  1.0000
  Hg  Hg2       1.0  0.99322  0.32702  0.66395  1.0000
  Hg  Hg3       1.0  0.00678  0.67298  0.33605  1.0000
  H   H1        1.0  0.02822  0.76575  0.89876  1.0000
  H   H2        1.0  0.97178  0.23425  0.10123  1.0000
  H   H3        1.0  0.22391  0.61511  0.83792  1.0000
  H   H4        1.0  0.77609  0.38489  0.16207  1.0000
  H   H5        1.0  0.56170  0.81678  0.94562  1.0000
  H   H6        1.0  0.43830  0.18322  0.05438  1.0000
  H   H7        1.0  0.35032  0.95223  0.00722  1.0000
  H   H8        1.0  0.64967  0.04777  0.99278  1.0000
  H   H9        1.0  0.38881  0.48860  0.80207  1.0000
  H   H10       1.0  0.61119  0.51140  0.19793  1.0000
  H   H11       1.0  0.59907  0.35782  0.73636  1.0000
  H   H12       1.0  0.40094  0.64218  0.26364  1.0000
  H   H13       1.0  0.91871  0.57951  0.80698  1.0000
  H   H14       1.0  0.08129  0.42049  0.19302  1.0000
  H   H15       1.0  0.72338  0.71924  0.87865  1.0000
  H   H16       1.0  0.27661  0.28076  0.12135  1.0000
  H   H17       1.0  0.30646  0.36994  0.48888  1.0000
  H   H18       1.0  0.69354  0.63006  0.51112  1.0000
  H   H19       1.0  0.52281  0.24347  0.42540  1.0000
  H   H20       1.0  0.47719  0.75654  0.57461  1.0000
  H   H21       1.0  0.30640  0.86697  0.62240  1.0000
  H   H22       1.0  0.69360  0.13303  0.37760  1.0000
  H   H23       1.0  0.09988  0.01081  0.67629  1.0000
  H   H24       1.0  0.90012  0.98919  0.32371  1.0000
  H   H25       1.0  0.73389  0.11801  0.62545  1.0000
  H   H26       1.0  0.26611  0.88199  0.37454  1.0000
  H   H27       1.0  0.61291  0.99207  0.72024  1.0000
  H   H28       1.0  0.38710  0.00793  0.27975  1.0000
  H   H29       1.0  0.78558  0.93851  0.65843  1.0000
  H   H30       1.0  0.21442  0.06149  0.34156  1.0000
  C   C1        1.0  0.14826  0.77063  0.90875  1.0000
  C   C2        1.0  0.85174  0.22937  0.09125  1.0000
  C   C3        1.0  0.25954  0.68742  0.87512  1.0000
  C   C4        1.0  0.74046  0.31258  0.12488  1.0000
  C   C5        1.0  0.41323  0.70089  0.88630  1.0000
  C   C6        1.0  0.58677  0.29911  0.11371  1.0000
  C   C7        1.0  0.44598  0.79834  0.93472  1.0000
  C   C8        1.0  0.55402  0.20166  0.06528  1.0000
  C   C9        1.0  0.32891  0.87669  0.96856  1.0000
  C   C10       1.0  0.67109  0.12331  0.03144  1.0000
  C   C11       1.0  0.53550  0.61755  0.84702  1.0000
  C   C12       1.0  0.46450  0.38245  0.15297  1.0000
  C   C13       1.0  0.50412  0.51406  0.80502  1.0000
  C   C14       1.0  0.49588  0.48594  0.19498  1.0000
  C   C15       1.0  0.62276  0.43996  0.76712  1.0000
  C   C16       1.0  0.37724  0.56004  0.23288  1.0000
  C   C17       1.0  0.79963  0.56094  0.80889  1.0000
  C   C18       1.0  0.20037  0.43906  0.19111  1.0000
  C   C19       1.0  0.68871  0.63966  0.84904  1.0000
  C   C20       1.0  0.31129  0.36035  0.15096  1.0000
  C   C21       1.0  0.31078  0.25793  0.51606  1.0000
  C   C22       1.0  0.68922  0.74207  0.48395  1.0000
  C   C23       1.0  0.43264  0.18548  0.48092  1.0000
  C   C24       1.0  0.56736  0.81453  0.51908  1.0000
  C   C25       1.0  0.43673  0.04098  0.51795  1.0000
  C   C26       1.0  0.56327  0.95902  0.48205  1.0000
  C   C27       1.0  0.31437  0.97797  0.59023  1.0000
  C   C28       1.0  0.68562  0.02203  0.40977  1.0000
  C   C29       1.0  0.19626  0.05802  0.62097  1.0000
  C   C30       1.0  0.80373  0.94198  0.37903  1.0000
  C   C31       1.0  0.81519  0.00525  0.80052  1.0000
  C   C32       1.0  0.18481  0.99475  0.19948  1.0000
  C   C33       1.0  0.73068  0.01542  0.69420  1.0000
  C   C34       1.0  0.26932  0.98458  0.30580  1.0000
  C   C35       1.0  0.29472  0.24277  0.81689  1.0000
  C   C36       1.0  0.70527  0.75723  0.18311  1.0000
  C   C37       1.0  0.89213  0.30927  0.41858  1.0000
  C   C38       1.0  0.10788  0.69072  0.58142  1.0000
  S   S1        1.0  0.13285  0.32897  0.83486  1.0000
  S   S2        1.0  0.86716  0.67103  0.16514  1.0000
  S   S3        1.0  0.81126  0.39715  0.50027  1.0000
  S   S4        1.0  0.18874  0.60285  0.49973  1.0000
  N   N1        1.0  0.18299  0.86353  0.95466  1.0000
  N   N2        1.0  0.81701  0.13647  0.04534  1.0000
  N   N3        1.0  0.76884  0.46284  0.76799  1.0000
  N   N4        1.0  0.23116  0.53717  0.23201  1.0000
  N   N5        1.0  0.19405  0.19610  0.58449  1.0000
  N   N6        1.0  0.80594  0.80390  0.41551  1.0000
  N   N7        1.0  0.41144  0.18240  0.80718  1.0000
  N   N8        1.0  0.58857  0.81759  0.19283  1.0000
  N   N9        1.0  0.94451  0.24819  0.35800  1.0000
  N   N10       1.0  0.05549  0.75180  0.64200  1.0000
  O   O1        1.0  0.91367  0.09260  0.78880  1.0000
  O   O2        1.0  0.08633  0.90740  0.21119  1.0000
  O   O3        1.0  0.79166  0.90843  0.89815  1.0000
  O   O4        1.0  0.20833  0.09157  0.10184  1.0000
