data_image0
_chemical_formula_structural       Ca2H24C16N16O12
_chemical_formula_sum              "Ca2 H24 C16 N16 O12"
_cell_length_a       7.28008
_cell_length_b       10.183
_cell_length_c       11.0082
_cell_angle_alpha    62.4476
_cell_angle_beta     83.7406
_cell_angle_gamma    76.3526

_space_group_name_H-M_alt    "P 1"
_space_group_IT_number       1

loop_
  _space_group_symop_operation_xyz
  'x, y, z'

loop_
  _atom_site_type_symbol
  _atom_site_label
  _atom_site_symmetry_multiplicity
  _atom_site_fract_x
  _atom_site_fract_y
  _atom_site_fract_z
  _atom_site_occupancy
  Ca  Ca1       1.0  0.75013  0.07340  0.85324  1.0000
  Ca  Ca2       1.0  0.24988  0.92660  0.14676  1.0000
  H   H1        1.0  0.95960  0.94663  0.67565  1.0000
  H   H2        1.0  0.54017  0.37760  0.67564  1.0000
  H   H3        1.0  0.04041  0.05336  0.32436  1.0000
  H   H4        1.0  0.45983  0.62241  0.32436  1.0000
  H   H5        1.0  0.99088  0.11774  0.59933  1.0000
  H   H6        1.0  0.50958  0.28278  0.59914  1.0000
  H   H7        1.0  0.00912  0.88225  0.40067  1.0000
  H   H8        1.0  0.49042  0.71722  0.40086  1.0000
  H   H9        1.0  0.15498  0.37673  0.59943  1.0000
  H   H10       1.0  0.34533  0.02410  0.59948  1.0000
  H   H11       1.0  0.84501  0.62328  0.40056  1.0000
  H   H12       1.0  0.65468  0.97591  0.40052  1.0000
  H   H13       1.0  0.19106  0.54499  0.45219  1.0000
  H   H14       1.0  0.30866  0.00321  0.45228  1.0000
  H   H15       1.0  0.80891  0.45502  0.54780  1.0000
  H   H16       1.0  0.69134  0.99680  0.54772  1.0000
  H   H17       1.0  0.14047  0.38207  0.95459  1.0000
  H   H18       1.0  0.35904  0.66358  0.95462  1.0000
  H   H19       1.0  0.85954  0.61792  0.04543  1.0000
  H   H20       1.0  0.64097  0.33641  0.04538  1.0000
  H   H21       1.0  0.27848  0.32881  0.83439  1.0000
  H   H22       1.0  0.22128  0.83719  0.83435  1.0000
  H   H23       1.0  0.72154  0.67118  0.16560  1.0000
  H   H24       1.0  0.77872  0.16281  0.16566  1.0000
  C   C1        1.0  0.01360  0.25900  0.88314  1.0000
  C   C2        1.0  0.48632  0.85788  0.88342  1.0000
  C   C3        1.0  0.98643  0.74098  0.11687  1.0000
  C   C4        1.0  0.51369  0.14211  0.11657  1.0000
  C   C5        1.0  0.09068  0.49528  0.53376  1.0000
  C   C6        1.0  0.40923  0.97115  0.53380  1.0000
  C   C7        1.0  0.90929  0.50473  0.46624  1.0000
  C   C8        1.0  0.59078  0.02885  0.46619  1.0000
  C   C9        1.0  0.05035  0.58088  0.61577  1.0000
  C   C10       1.0  0.44918  0.80352  0.61581  1.0000
  C   C11       1.0  0.94964  0.41912  0.38424  1.0000
  C   C12       1.0  0.55082  0.19649  0.38418  1.0000
  C   C13       1.0  0.13439  0.37302  0.85977  1.0000
  C   C14       1.0  0.36533  0.76747  0.85985  1.0000
  C   C15       1.0  0.86562  0.62698  0.14024  1.0000
  C   C16       1.0  0.63466  0.23253  0.14015  1.0000
  N   N1        1.0  0.01709  0.64169  0.78619  1.0000
  N   N2        1.0  0.48246  0.57231  0.78630  1.0000
  N   N3        1.0  0.98290  0.35830  0.21382  1.0000
  N   N4        1.0  0.51754  0.42769  0.21369  1.0000
  N   N5        1.0  0.06639  0.52548  0.75312  1.0000
  N   N6        1.0  0.43330  0.72163  0.75318  1.0000
  N   N7        1.0  0.93361  0.47452  0.24688  1.0000
  N   N8        1.0  0.56670  0.27837  0.24681  1.0000
  N   N9        1.0  0.99251  0.73109  0.56460  1.0000
  N   N10       1.0  0.50674  0.70444  0.56468  1.0000
  N   N11       1.0  0.00747  0.26891  0.43540  1.0000
  N   N12       1.0  0.49326  0.29557  0.43531  1.0000
  N   N13       1.0  0.97392  0.76404  0.67159  1.0000
  N   N14       1.0  0.52535  0.56450  0.67172  1.0000
  N   N15       1.0  0.02607  0.23595  0.32842  1.0000
  N   N16       1.0  0.47465  0.43550  0.32827  1.0000
  O   O1        1.0  0.97030  0.03352  0.69034  1.0000
  O   O2        1.0  0.52986  0.27599  0.69020  1.0000
  O   O3        1.0  0.02971  0.96647  0.30967  1.0000
  O   O4        1.0  0.47013  0.72401  0.30980  1.0000
  O   O5        1.0  0.89239  0.28973  0.79499  1.0000
  O   O6        1.0  0.60721  0.91564  0.79517  1.0000
  O   O7        1.0  0.10761  0.71027  0.20500  1.0000
  O   O8        1.0  0.39280  0.08434  0.20486  1.0000
  O   O9        1.0  0.05120  0.13716  0.99279  1.0000
  O   O10       1.0  0.44896  0.86952  0.99333  1.0000
  O   O11       1.0  0.94880  0.86284  0.00719  1.0000
  O   O12       1.0  0.55103  0.13047  0.00668  1.0000
