data_image0
_chemical_formula_structural       Ca2H32C32N20O12
_chemical_formula_sum              "Ca2 H32 C32 N20 O12"
_cell_length_a       7.90694
_cell_length_b       10.1291
_cell_length_c       14.4261
_cell_angle_alpha    107.191
_cell_angle_beta     94.5377
_cell_angle_gamma    96.1544

_space_group_name_H-M_alt    "P 1"
_space_group_IT_number       1

loop_
  _space_group_symop_operation_xyz
  'x, y, z'

loop_
  _atom_site_type_symbol
  _atom_site_label
  _atom_site_symmetry_multiplicity
  _atom_site_fract_x
  _atom_site_fract_y
  _atom_site_fract_z
  _atom_site_occupancy
  Ca  Ca1       1.0  0.75799  0.99085  0.03714  1.0000
  Ca  Ca2       1.0  0.24201  0.00914  0.96286  1.0000
  H   H1        1.0  0.38018  0.24020  0.69069  1.0000
  H   H2        1.0  0.61982  0.75980  0.30931  1.0000
  H   H3        1.0  0.44736  0.87678  0.45883  1.0000
  H   H4        1.0  0.55265  0.12321  0.54116  1.0000
  H   H5        1.0  0.37596  0.65786  0.88082  1.0000
  H   H6        1.0  0.62402  0.34214  0.11919  1.0000
  H   H7        1.0  0.05068  0.35862  0.91207  1.0000
  H   H8        1.0  0.94931  0.64138  0.08792  1.0000
  H   H9        1.0  0.94808  0.23045  0.80171  1.0000
  H   H10       1.0  0.05192  0.76956  0.19829  1.0000
  H   H11       1.0  0.11373  0.58882  0.52875  1.0000
  H   H12       1.0  0.88628  0.41118  0.47124  1.0000
  H   H13       1.0  0.40670  0.74973  0.70603  1.0000
  H   H14       1.0  0.59330  0.25026  0.29395  1.0000
  H   H15       1.0  0.48649  0.92113  0.70565  1.0000
  H   H16       1.0  0.51354  0.07888  0.29436  1.0000
  H   H17       1.0  0.28605  0.07251  0.53608  1.0000
  H   H18       1.0  0.71397  0.92748  0.46392  1.0000
  H   H19       1.0  0.96418  0.47897  0.66899  1.0000
  H   H20       1.0  0.03581  0.52103  0.33102  1.0000
  H   H21       1.0  0.09031  0.25669  0.61016  1.0000
  H   H22       1.0  0.90968  0.74331  0.38985  1.0000
  H   H23       1.0  0.02234  0.01867  0.61317  1.0000
  H   H24       1.0  0.97768  0.98133  0.38684  1.0000
  H   H25       1.0  0.05054  0.15927  0.16939  1.0000
  H   H26       1.0  0.94944  0.84073  0.83062  1.0000
  H   H27       1.0  0.90349  0.25745  0.19083  1.0000
  H   H28       1.0  0.09650  0.74255  0.80917  1.0000
  H   H29       1.0  0.48047  0.79577  0.06110  1.0000
  H   H30       1.0  0.51953  0.20423  0.93890  1.0000
  H   H31       1.0  0.61558  0.70032  0.01356  1.0000
  H   H32       1.0  0.38441  0.29968  0.98644  1.0000
  C   C1        1.0  0.88561  0.19014  0.93517  1.0000
  C   C2        1.0  0.11438  0.80985  0.06483  1.0000
  C   C3        1.0  0.58157  0.87055  0.83379  1.0000
  C   C4        1.0  0.41842  0.12944  0.16619  1.0000
  C   C5        1.0  0.56904  0.44339  0.83822  1.0000
  C   C6        1.0  0.43096  0.55662  0.16179  1.0000
  C   C7        1.0  0.40141  0.44837  0.79074  1.0000
  C   C8        1.0  0.59859  0.55164  0.20926  1.0000
  C   C9        1.0  0.04463  0.79908  0.57445  1.0000
  C   C10       1.0  0.95540  0.20092  0.42556  1.0000
  C   C11       1.0  0.88304  0.76164  0.60834  1.0000
  C   C12       1.0  0.11697  0.23835  0.39166  1.0000
  C   C13       1.0  0.31850  0.33385  0.71400  1.0000
  C   C14       1.0  0.68148  0.66616  0.28601  1.0000
  C   C15       1.0  0.33478  0.85792  0.49460  1.0000
  C   C16       1.0  0.66522  0.14206  0.50539  1.0000
  C   C17       1.0  0.31810  0.56670  0.82054  1.0000
  C   C18       1.0  0.68189  0.43331  0.17948  1.0000
  C   C19       1.0  0.93159  0.29050  0.87645  1.0000
  C   C20       1.0  0.06840  0.70949  0.12355  1.0000
  C   C21       1.0  0.14816  0.69774  0.53254  1.0000
  C   C22       1.0  0.85185  0.30224  0.46744  1.0000
  C   C23       1.0  0.52010  0.82886  0.72398  1.0000
  C   C24       1.0  0.47990  0.17113  0.27601  1.0000
  C   C25       1.0  0.24482  0.96725  0.53786  1.0000
  C   C26       1.0  0.75521  0.03275  0.46215  1.0000
  C   C27       1.0  0.08716  0.46615  0.70308  1.0000
  C   C28       1.0  0.91282  0.53386  0.29693  1.0000
  C   C29       1.0  0.15915  0.34298  0.67015  1.0000
  C   C30       1.0  0.84085  0.65703  0.32985  1.0000
  C   C31       1.0  0.09834  0.93767  0.57939  1.0000
  C   C32       1.0  0.90169  0.06232  0.42062  1.0000
  N   N1        1.0  0.66379  0.34054  0.80529  1.0000
  N   N2        1.0  0.33621  0.65946  0.19472  1.0000
  N   N3        1.0  0.80010  0.37832  0.87199  1.0000
  N   N4        1.0  0.19991  0.62169  0.12801  1.0000
  N   N5        1.0  0.16544  0.57609  0.77714  1.0000
  N   N6        1.0  0.83455  0.42392  0.22286  1.0000
  N   N7        1.0  0.64847  0.53888  0.92241  1.0000
  N   N8        1.0  0.35152  0.46112  0.07760  1.0000
  N   N9        1.0  0.77749  0.85407  0.64568  1.0000
  N   N10       1.0  0.22254  0.14593  0.35433  1.0000
  N   N11       1.0  0.81918  0.62987  0.60575  1.0000
  N   N12       1.0  0.18083  0.37013  0.39425  1.0000
  N   N13       1.0  0.65093  0.77302  0.66560  1.0000
  N   N14       1.0  0.34908  0.22698  0.33440  1.0000
  N   N15       1.0  0.79400  0.49598  0.94326  1.0000
  N   N16       1.0  0.20599  0.50403  0.05673  1.0000
  N   N17       1.0  0.67297  0.63874  0.64338  1.0000
  N   N18       1.0  0.32704  0.36126  0.35661  1.0000
  N   N19       1.0  0.29034  0.72589  0.49340  1.0000
  N   N20       1.0  0.70966  0.27410  0.50658  1.0000
  O   O1        1.0  0.47281  0.91654  0.89041  1.0000
  O   O2        1.0  0.52717  0.08344  0.10957  1.0000
  O   O3        1.0  0.00067  0.11970  0.95103  1.0000
  O   O4        1.0  0.99932  0.88031  0.04898  1.0000
  O   O5        1.0  0.73291  0.85819  0.86195  1.0000
  O   O6        1.0  0.26706  0.14180  0.13805  1.0000
  O   O7        1.0  0.73881  0.18222  0.96408  1.0000
  O   O8        1.0  0.26117  0.81777  0.03591  1.0000
  O   O9        1.0  0.92636  0.15795  0.17316  1.0000
  O   O10       1.0  0.07363  0.84206  0.82684  1.0000
  O   O11       1.0  0.60470  0.78996  0.06333  1.0000
  O   O12       1.0  0.39530  0.21004  0.93666  1.0000
