data_image0
_chemical_formula_structural       CuH20C20S2N2O8
_chemical_formula_sum              "Cu1 H20 C20 S2 N2 O8"
_cell_length_a       7.39004
_cell_length_b       8.11646
_cell_length_c       9.99262
_cell_angle_alpha    108.978
_cell_angle_beta     94.608
_cell_angle_gamma    102.775

_space_group_name_H-M_alt    "P 1"
_space_group_IT_number       1

loop_
  _space_group_symop_operation_xyz
  'x, y, z'

loop_
  _atom_site_type_symbol
  _atom_site_label
  _atom_site_symmetry_multiplicity
  _atom_site_fract_x
  _atom_site_fract_y
  _atom_site_fract_z
  _atom_site_occupancy
  Cu  Cu1       1.0  0.50000  0.50000  0.50000  1.0000
  H   H1        1.0  0.40592  0.18818  0.58714  1.0000
  H   H2        1.0  0.59408  0.81181  0.41285  1.0000
  H   H3        1.0  0.23391  0.85998  0.47137  1.0000
  H   H4        1.0  0.76608  0.14001  0.52862  1.0000
  H   H5        1.0  0.08407  0.74334  0.21067  1.0000
  H   H6        1.0  0.91591  0.25666  0.78932  1.0000
  H   H7        1.0  0.11004  0.96216  0.08070  1.0000
  H   H8        1.0  0.88996  0.03784  0.91930  1.0000
  H   H9        1.0  0.28715  0.28487  0.21147  1.0000
  H   H10       1.0  0.71285  0.71513  0.78852  1.0000
  H   H11       1.0  0.12460  0.82159  0.69742  1.0000
  H   H12       1.0  0.87541  0.17841  0.30258  1.0000
  H   H13       1.0  0.23137  0.15777  0.77404  1.0000
  H   H14       1.0  0.76863  0.84223  0.22597  1.0000
  H   H15       1.0  0.48830  0.33098  0.97447  1.0000
  H   H16       1.0  0.51169  0.66902  0.02554  1.0000
  H   H17       1.0  0.80842  0.44078  0.45536  1.0000
  H   H18       1.0  0.19158  0.55922  0.54465  1.0000
  H   H19       1.0  0.83082  0.47167  0.61894  1.0000
  H   H20       1.0  0.16918  0.52834  0.38107  1.0000
  C   C1        1.0  0.33727  0.13109  0.47549  1.0000
  C   C2        1.0  0.66272  0.86891  0.52450  1.0000
  C   C3        1.0  0.24068  0.94992  0.41038  1.0000
  C   C4        1.0  0.75932  0.05008  0.58962  1.0000
  C   C5        1.0  0.15869  0.88514  0.26606  1.0000
  C   C6        1.0  0.84130  0.11486  0.73393  1.0000
  C   C7        1.0  0.17255  0.00630  0.19306  1.0000
  C   C8        1.0  0.82744  0.99370  0.80694  1.0000
  C   C9        1.0  0.26951  0.18612  0.26490  1.0000
  C   C10       1.0  0.73049  0.81388  0.73509  1.0000
  C   C11       1.0  0.32156  0.80698  0.85897  1.0000
  C   C12       1.0  0.67845  0.19304  0.14103  1.0000
  C   C13       1.0  0.23833  0.89763  0.78721  1.0000
  C   C14       1.0  0.76167  0.10238  0.21279  1.0000
  C   C15       1.0  0.29902  0.08719  0.83022  1.0000
  C   C16       1.0  0.70098  0.91283  0.16979  1.0000
  C   C17       1.0  0.44254  0.18498  0.94386  1.0000
  C   C18       1.0  0.55746  0.81502  0.05615  1.0000
  C   C19       1.0  0.53065  0.09689  0.02112  1.0000
  C   C20       1.0  0.46936  0.90311  0.97889  1.0000
  S   S1        1.0  0.24487  0.56506  0.79501  1.0000
  S   S2        1.0  0.75514  0.43494  0.20499  1.0000
  N   N1        1.0  0.35182  0.24629  0.40330  1.0000
  N   N2        1.0  0.64818  0.75371  0.59669  1.0000
  O   O1        1.0  0.40635  0.50157  0.74081  1.0000
  O   O2        1.0  0.59366  0.49843  0.25919  1.0000
  O   O3        1.0  0.08849  0.51866  0.67308  1.0000
  O   O4        1.0  0.91151  0.48133  0.32692  1.0000
  O   O5        1.0  0.18287  0.50886  0.91129  1.0000
  O   O6        1.0  0.81713  0.49114  0.08871  1.0000
  O   O7        1.0  0.73532  0.41482  0.53094  1.0000
  O   O8        1.0  0.26468  0.58518  0.46907  1.0000
