data_image0
_chemical_formula_structural       Cu8H16C12S12Cl8
_chemical_formula_sum              "Cu8 H16 C12 S12 Cl8"
_cell_length_a       5.81824
_cell_length_b       10.6391
_cell_length_c       12.8086
_cell_angle_alpha    89.9994
_cell_angle_beta     90.0001
_cell_angle_gamma    93.3884

_space_group_name_H-M_alt    "P 1"
_space_group_IT_number       1

loop_
  _space_group_symop_operation_xyz
  'x, y, z'

loop_
  _atom_site_type_symbol
  _atom_site_label
  _atom_site_symmetry_multiplicity
  _atom_site_fract_x
  _atom_site_fract_y
  _atom_site_fract_z
  _atom_site_occupancy
  Cu  Cu1       1.0  0.13713  0.77847  0.26422  1.0000
  Cu  Cu2       1.0  0.36287  0.22153  0.76422  1.0000
  Cu  Cu3       1.0  0.86288  0.22153  0.73578  1.0000
  Cu  Cu4       1.0  0.63713  0.77847  0.23578  1.0000
  Cu  Cu5       1.0  0.48288  0.45788  0.33973  1.0000
  Cu  Cu6       1.0  0.01712  0.54212  0.83973  1.0000
  Cu  Cu7       1.0  0.51712  0.54212  0.66027  1.0000
  Cu  Cu8       1.0  0.98288  0.45789  0.16027  1.0000
  H   H1        1.0  0.44240  0.80179  0.68839  1.0000
  H   H2        1.0  0.05759  0.19820  0.18839  1.0000
  H   H3        1.0  0.55760  0.19822  0.31162  1.0000
  H   H4        1.0  0.94241  0.80178  0.81161  1.0000
  H   H5        1.0  0.55159  0.95873  0.65766  1.0000
  H   H6        1.0  0.94837  0.04126  0.15766  1.0000
  H   H7        1.0  0.44842  0.04127  0.34234  1.0000
  H   H8        1.0  0.05161  0.95873  0.84233  1.0000
  H   H9        1.0  0.86445  0.87201  0.54889  1.0000
  H   H10       1.0  0.63553  0.12800  0.04889  1.0000
  H   H11       1.0  0.13556  0.12799  0.45112  1.0000
  H   H12       1.0  0.36446  0.87201  0.95110  1.0000
  H   H13       1.0  0.86537  0.78687  0.66970  1.0000
  H   H14       1.0  0.63462  0.21314  0.16970  1.0000
  H   H15       1.0  0.13463  0.21313  0.33031  1.0000
  H   H16       1.0  0.36538  0.78686  0.83030  1.0000
  C   C1        1.0  0.47164  0.72386  0.46271  1.0000
  C   C2        1.0  0.02835  0.27614  0.96271  1.0000
  C   C3        1.0  0.52837  0.27614  0.53729  1.0000
  C   C4        1.0  0.97164  0.72387  0.03728  1.0000
  C   C5        1.0  0.53460  0.86106  0.63007  1.0000
  C   C6        1.0  0.96538  0.13893  0.13007  1.0000
  C   C7        1.0  0.46541  0.13894  0.36994  1.0000
  C   C8        1.0  0.03462  0.86107  0.86992  1.0000
  C   C9        1.0  0.76248  0.80971  0.60168  1.0000
  C   C10       1.0  0.73751  0.19030  0.10168  1.0000
  C   C11       1.0  0.23753  0.19030  0.39832  1.0000
  C   C12       1.0  0.26249  0.80970  0.89831  1.0000
  S   S1        1.0  0.38099  0.65794  0.34860  1.0000
  S   S2        1.0  0.11901  0.34206  0.84861  1.0000
  S   S3        1.0  0.61901  0.34206  0.65140  1.0000
  S   S4        1.0  0.88099  0.65795  0.15139  1.0000
  S   S5        1.0  0.35765  0.85465  0.51326  1.0000
  S   S6        1.0  0.14233  0.14534  0.01326  1.0000
  S   S7        1.0  0.64236  0.14535  0.48674  1.0000
  S   S8        1.0  0.85766  0.85465  0.98673  1.0000
  S   S9        1.0  0.69861  0.66240  0.53147  1.0000
  S   S10       1.0  0.80139  0.33760  0.03147  1.0000
  S   S11       1.0  0.30140  0.33760  0.46854  1.0000
  S   S12       1.0  0.19861  0.66240  0.96853  1.0000
  Cl  Cl1       1.0  0.38688  0.91060  0.16001  1.0000
  Cl  Cl2       1.0  0.11313  0.08940  0.66002  1.0000
  Cl  Cl3       1.0  0.61313  0.08941  0.83999  1.0000
  Cl  Cl4       1.0  0.88687  0.91059  0.33998  1.0000
  Cl  Cl5       1.0  0.85983  0.41118  0.33011  1.0000
  Cl  Cl6       1.0  0.64017  0.58882  0.83011  1.0000
  Cl  Cl7       1.0  0.14017  0.58882  0.66989  1.0000
  Cl  Cl8       1.0  0.35983  0.41118  0.16990  1.0000
