data_image0
_chemical_formula_structural       Co2H26C38N10O8
_chemical_formula_sum              "Co2 H26 C38 N10 O8"
_cell_length_a       7.72256
_cell_length_b       10.0804
_cell_length_c       12.5586
_cell_angle_alpha    66.8465
_cell_angle_beta     75.8693
_cell_angle_gamma    86.7478

_space_group_name_H-M_alt    "P 1"
_space_group_IT_number       1

loop_
  _space_group_symop_operation_xyz
  'x, y, z'

loop_
  _atom_site_type_symbol
  _atom_site_label
  _atom_site_symmetry_multiplicity
  _atom_site_fract_x
  _atom_site_fract_y
  _atom_site_fract_z
  _atom_site_occupancy
  Co  Co1       1.0  0.82676  0.93847  0.28643  1.0000
  Co  Co2       1.0  0.17324  0.06149  0.71354  1.0000
  H   H1        1.0  0.02853  0.63326  0.06901  1.0000
  H   H2        1.0  0.97149  0.36680  0.93093  1.0000
  H   H3        1.0  0.87321  0.87464  0.91753  1.0000
  H   H4        1.0  0.12669  0.12543  0.08243  1.0000
  H   H5        1.0  0.44985  0.00087  0.26624  1.0000
  H   H6        1.0  0.55025  0.99920  0.73380  1.0000
  H   H7        1.0  0.09539  0.73809  0.59789  1.0000
  H   H8        1.0  0.90455  0.26192  0.40209  1.0000
  H   H9        1.0  0.67089  0.72334  0.53728  1.0000
  H   H10       1.0  0.32902  0.27657  0.46272  1.0000
  H   H11       1.0  0.22640  0.52511  0.00396  1.0000
  H   H12       1.0  0.77373  0.47492  0.99604  1.0000
  H   H13       1.0  0.40121  0.31051  0.01655  1.0000
  H   H14       1.0  0.59876  0.68947  0.98345  1.0000
  H   H15       1.0  0.55413  0.27756  0.82793  1.0000
  H   H16       1.0  0.44590  0.72241  0.17207  1.0000
  H   H17       1.0  0.53369  0.46338  0.63289  1.0000
  H   H18       1.0  0.46627  0.53657  0.36711  1.0000
  H   H19       1.0  0.02927  0.61769  0.41374  1.0000
  H   H20       1.0  0.97089  0.38235  0.58619  1.0000
  H   H21       1.0  0.13611  0.47217  0.26164  1.0000
  H   H22       1.0  0.86405  0.52785  0.73828  1.0000
  H   H23       1.0  0.68775  0.09709  0.86930  1.0000
  H   H24       1.0  0.31211  0.90289  0.13080  1.0000
  H   H25       1.0  0.62529  0.16712  0.07008  1.0000
  H   H26       1.0  0.37458  0.83284  0.93002  1.0000
  C   C1        1.0  0.42889  0.91954  0.35669  1.0000
  C   C2        1.0  0.57111  0.08051  0.64334  1.0000
  C   C3        1.0  0.25412  0.87712  0.42573  1.0000
  C   C4        1.0  0.74586  0.12296  0.57428  1.0000
  C   C5        1.0  0.22975  0.77312  0.54192  1.0000
  C   C6        1.0  0.77021  0.22693  0.45808  1.0000
  C   C7        1.0  0.38048  0.71510  0.58482  1.0000
  C   C8        1.0  0.61944  0.28486  0.41520  1.0000
  C   C9        1.0  0.54942  0.76317  0.50766  1.0000
  C   C10       1.0  0.45050  0.23677  0.49236  1.0000
  C   C11       1.0  0.10659  0.93908  0.36422  1.0000
  C   C12       1.0  0.89341  0.06102  0.63575  1.0000
  C   C13       1.0  0.37382  0.60434  0.70592  1.0000
  C   C14       1.0  0.62613  0.39561  0.29410  1.0000
  C   C15       1.0  0.28339  0.62037  0.81231  1.0000
  C   C16       1.0  0.71662  0.37962  0.18771  1.0000
  C   C17       1.0  0.29574  0.51282  0.92217  1.0000
  C   C18       1.0  0.70429  0.48716  0.07784  1.0000
  C   C19       1.0  0.39508  0.39146  0.92933  1.0000
  C   C20       1.0  0.60493  0.60851  0.07067  1.0000
  C   C21       1.0  0.48015  0.37360  0.82464  1.0000
  C   C22       1.0  0.51987  0.62638  0.17535  1.0000
  C   C23       1.0  0.46872  0.47881  0.71449  1.0000
  C   C24       1.0  0.53125  0.52114  0.28551  1.0000
  C   C25       1.0  0.17854  0.75043  0.81506  1.0000
  C   C26       1.0  0.82153  0.24958  0.18495  1.0000
  C   C27       1.0  0.00871  0.64246  0.32573  1.0000
  C   C28       1.0  0.99140  0.35756  0.67421  1.0000
  C   C29       1.0  0.06239  0.56936  0.25102  1.0000
  C   C30       1.0  0.93773  0.43064  0.74894  1.0000
  C   C31       1.0  0.92081  0.76136  0.16260  1.0000
  C   C32       1.0  0.07921  0.23860  0.83737  1.0000
  C   C33       1.0  0.83823  0.87872  0.08878  1.0000
  C   C34       1.0  0.16176  0.12125  0.91120  1.0000
  C   C35       1.0  0.72061  0.04412  0.95464  1.0000
  C   C36       1.0  0.27920  0.95585  0.04546  1.0000
  C   C37       1.0  0.69209  0.07698  0.05427  1.0000
  C   C38       1.0  0.30780  0.92298  0.94583  1.0000
  N   N1        1.0  0.57404  0.86331  0.39572  1.0000
  N   N2        1.0  0.42593  0.13665  0.60432  1.0000
  N   N3        1.0  0.92004  0.76272  0.26962  1.0000
  N   N4        1.0  0.08000  0.23726  0.73034  1.0000
  N   N5        1.0  0.00500  0.64608  0.14885  1.0000
  N   N6        1.0  0.99507  0.35390  0.85112  1.0000
  N   N7        1.0  0.76784  0.97349  0.13767  1.0000
  N   N8        1.0  0.23217  0.02646  0.86235  1.0000
  N   N9        1.0  0.81259  0.91939  0.97802  1.0000
  N   N10       1.0  0.18729  0.08060  0.02198  1.0000
  O   O1        1.0  0.14835  0.02815  0.25744  1.0000
  O   O2        1.0  0.85172  0.97198  0.74255  1.0000
  O   O3        1.0  0.94413  0.88998  0.41917  1.0000
  O   O4        1.0  0.05585  0.11008  0.58076  1.0000
  O   O5        1.0  0.23890  0.86976  0.72707  1.0000
  O   O6        1.0  0.76114  0.13021  0.27290  1.0000
  O   O7        1.0  0.04765  0.73322  0.90313  1.0000
  O   O8        1.0  0.95245  0.26684  0.09689  1.0000
