data_image0
_chemical_formula_structural       Bi4H40C32S8Cl12
_chemical_formula_sum              "Bi4 H40 C32 S8 Cl12"
_cell_length_a       7.19769
_cell_length_b       8.90218
_cell_length_c       20.8236
_cell_angle_alpha    98.042
_cell_angle_beta     90.0001
_cell_angle_gamma    89.9999

_space_group_name_H-M_alt    "P 1"
_space_group_IT_number       1

loop_
  _space_group_symop_operation_xyz
  'x, y, z'

loop_
  _atom_site_type_symbol
  _atom_site_label
  _atom_site_symmetry_multiplicity
  _atom_site_fract_x
  _atom_site_fract_y
  _atom_site_fract_z
  _atom_site_occupancy
  Bi  Bi1       1.0  0.75286  0.52746  0.55690  1.0000
  Bi  Bi2       1.0  0.25285  0.47255  0.94310  1.0000
  Bi  Bi3       1.0  0.24714  0.47254  0.44310  1.0000
  Bi  Bi4       1.0  0.74714  0.52745  0.05690  1.0000
  H   H1        1.0  0.34305  0.51006  0.74584  1.0000
  H   H2        1.0  0.84305  0.48994  0.75416  1.0000
  H   H3        1.0  0.65694  0.48994  0.25416  1.0000
  H   H4        1.0  0.15695  0.51006  0.24584  1.0000
  H   H5        1.0  0.46438  0.37894  0.68775  1.0000
  H   H6        1.0  0.96437  0.62106  0.81225  1.0000
  H   H7        1.0  0.53562  0.62106  0.31225  1.0000
  H   H8        1.0  0.03562  0.37894  0.18775  1.0000
  H   H9        1.0  0.28286  0.49194  0.66027  1.0000
  H   H10       1.0  0.78286  0.50806  0.83973  1.0000
  H   H11       1.0  0.71713  0.50807  0.33973  1.0000
  H   H12       1.0  0.21714  0.49194  0.16027  1.0000
  H   H13       1.0  0.20815  0.74115  0.73498  1.0000
  H   H14       1.0  0.70816  0.25885  0.76502  1.0000
  H   H15       1.0  0.79185  0.25885  0.26502  1.0000
  H   H16       1.0  0.29184  0.74115  0.23498  1.0000
  H   H17       1.0  0.03964  0.97748  0.72211  1.0000
  H   H18       1.0  0.53964  0.02252  0.77789  1.0000
  H   H19       1.0  0.96036  0.02252  0.27789  1.0000
  H   H20       1.0  0.46036  0.97748  0.22211  1.0000
  H   H21       1.0  0.17985  0.16458  0.65745  1.0000
  H   H22       1.0  0.67985  0.83542  0.84255  1.0000
  H   H23       1.0  0.82014  0.83542  0.34255  1.0000
  H   H24       1.0  0.32015  0.16458  0.15745  1.0000
  H   H25       1.0  0.49147  0.11786  0.60897  1.0000
  H   H26       1.0  0.99147  0.88214  0.89103  1.0000
  H   H27       1.0  0.50853  0.88214  0.39103  1.0000
  H   H28       1.0  0.00853  0.11786  0.10897  1.0000
  H   H29       1.0  0.64875  0.95313  0.51576  1.0000
  H   H30       1.0  0.14875  0.04687  0.98424  1.0000
  H   H31       1.0  0.35125  0.04687  0.48424  1.0000
  H   H32       1.0  0.85125  0.95313  0.01576  1.0000
  H   H33       1.0  0.89447  0.92840  0.52030  1.0000
  H   H34       1.0  0.39447  0.07160  0.97970  1.0000
  H   H35       1.0  0.10553  0.07159  0.47970  1.0000
  H   H36       1.0  0.60553  0.92841  0.02030  1.0000
  H   H37       1.0  0.78980  0.09429  0.56477  1.0000
  H   H38       1.0  0.28980  0.90571  0.93524  1.0000
  H   H39       1.0  0.21020  0.90571  0.43523  1.0000
  H   H40       1.0  0.71020  0.09429  0.06476  1.0000
  C   C1        1.0  0.39433  0.48936  0.69590  1.0000
  C   C2        1.0  0.89433  0.51064  0.80409  1.0000
  C   C3        1.0  0.60567  0.51064  0.30410  1.0000
  C   C4        1.0  0.10567  0.48936  0.19591  1.0000
  C   C5        1.0  0.44360  0.79296  0.67766  1.0000
  C   C6        1.0  0.94360  0.20704  0.82234  1.0000
  C   C7        1.0  0.55640  0.20704  0.32235  1.0000
  C   C8        1.0  0.05640  0.79296  0.17766  1.0000
  C   C9        1.0  0.26966  0.82255  0.70676  1.0000
  C   C10       1.0  0.76966  0.17745  0.79324  1.0000
  C   C11       1.0  0.73035  0.17746  0.29325  1.0000
  C   C12       1.0  0.23034  0.82255  0.20676  1.0000
  C   C13       1.0  0.17556  0.95612  0.69982  1.0000
  C   C14       1.0  0.67556  0.04388  0.80018  1.0000
  C   C15       1.0  0.82444  0.04388  0.30018  1.0000
  C   C16       1.0  0.32444  0.95613  0.19982  1.0000
  C   C17       1.0  0.25456  0.06116  0.66390  1.0000
  C   C18       1.0  0.75456  0.93884  0.83610  1.0000
  C   C19       1.0  0.74544  0.93885  0.33611  1.0000
  C   C20       1.0  0.24544  0.06116  0.16390  1.0000
  C   C21       1.0  0.42972  0.03439  0.63609  1.0000
  C   C22       1.0  0.92972  0.96561  0.86391  1.0000
  C   C23       1.0  0.57028  0.96562  0.36391  1.0000
  C   C24       1.0  0.07027  0.03439  0.13609  1.0000
  C   C25       1.0  0.52626  0.90111  0.64302  1.0000
  C   C26       1.0  0.02627  0.09888  0.85698  1.0000
  C   C27       1.0  0.47374  0.09889  0.35698  1.0000
  C   C28       1.0  0.97374  0.90112  0.14302  1.0000
  C   C29       1.0  0.77094  0.97340  0.54708  1.0000
  C   C30       1.0  0.27093  0.02659  0.95292  1.0000
  C   C31       1.0  0.22906  0.02659  0.45292  1.0000
  C   C32       1.0  0.72907  0.97341  0.04708  1.0000
  S   S1        1.0  0.57093  0.62681  0.68513  1.0000
  S   S2        1.0  0.07093  0.37318  0.81487  1.0000
  S   S3        1.0  0.42907  0.37319  0.31487  1.0000
  S   S4        1.0  0.92907  0.62682  0.18513  1.0000
  S   S5        1.0  0.75435  0.86645  0.61426  1.0000
  S   S6        1.0  0.25435  0.13355  0.88575  1.0000
  S   S7        1.0  0.24565  0.13355  0.38574  1.0000
  S   S8        1.0  0.74565  0.86645  0.11425  1.0000
  Cl  Cl1       1.0  0.89269  0.35214  0.63431  1.0000
  Cl  Cl2       1.0  0.39269  0.64786  0.86570  1.0000
  Cl  Cl3       1.0  0.10731  0.64787  0.36569  1.0000
  Cl  Cl4       1.0  0.60731  0.35214  0.13430  1.0000
  Cl  Cl5       1.0  0.89240  0.34027  0.45166  1.0000
  Cl  Cl6       1.0  0.39240  0.65973  0.04834  1.0000
  Cl  Cl7       1.0  0.10761  0.65972  0.54834  1.0000
  Cl  Cl8       1.0  0.60761  0.34027  0.95166  1.0000
  Cl  Cl9       1.0  0.45789  0.33472  0.53763  1.0000
  Cl  Cl10      1.0  0.95789  0.66528  0.96237  1.0000
  Cl  Cl11      1.0  0.54211  0.66527  0.46237  1.0000
  Cl  Cl12      1.0  0.04211  0.33472  0.03763  1.0000
