data_image0
_chemical_formula_structural       Ag4H40C28N12O8
_chemical_formula_sum              "Ag4 H40 C28 N12 O8"
_cell_length_a       8.23213
_cell_length_b       10.4786
_cell_length_c       11.2252
_cell_angle_alpha    110.947
_cell_angle_beta     100.191
_cell_angle_gamma    102.598

_space_group_name_H-M_alt    "P 1"
_space_group_IT_number       1

loop_
  _space_group_symop_operation_xyz
  'x, y, z'

loop_
  _atom_site_type_symbol
  _atom_site_label
  _atom_site_symmetry_multiplicity
  _atom_site_fract_x
  _atom_site_fract_y
  _atom_site_fract_z
  _atom_site_occupancy
  Ag  Ag1       1.0  0.43295  0.14709  0.36061  1.0000
  Ag  Ag2       1.0  0.56705  0.85291  0.63939  1.0000
  Ag  Ag3       1.0  0.11808  0.14475  0.18065  1.0000
  Ag  Ag4       1.0  0.88193  0.85525  0.81935  1.0000
  H   H1        1.0  0.63995  0.25938  0.75533  1.0000
  H   H2        1.0  0.36006  0.74063  0.24467  1.0000
  H   H3        1.0  0.63039  0.12097  0.60732  1.0000
  H   H4        1.0  0.36961  0.87904  0.39268  1.0000
  H   H5        1.0  0.46842  0.35984  0.60070  1.0000
  H   H6        1.0  0.53157  0.64016  0.39930  1.0000
  H   H7        1.0  0.30893  0.03779  0.53750  1.0000
  H   H8        1.0  0.69107  0.96220  0.46249  1.0000
  H   H9        1.0  0.19165  0.16142  0.50880  1.0000
  H   H10       1.0  0.80835  0.83858  0.49120  1.0000
  H   H11       1.0  0.82592  0.48821  0.83546  1.0000
  H   H12       1.0  0.17408  0.51179  0.16454  1.0000
  H   H13       1.0  0.99220  0.51838  0.76098  1.0000
  H   H14       1.0  0.00780  0.48162  0.23902  1.0000
  H   H15       1.0  0.09158  0.45051  0.95270  1.0000
  H   H16       1.0  0.90842  0.54949  0.04730  1.0000
  H   H17       1.0  0.94286  0.15649  0.71402  1.0000
  H   H18       1.0  0.05715  0.84351  0.28598  1.0000
  H   H19       1.0  0.10265  0.20900  0.87620  1.0000
  H   H20       1.0  0.89734  0.79100  0.12380  1.0000
  H   H21       1.0  0.39750  0.83726  0.89818  1.0000
  H   H22       1.0  0.60250  0.16274  0.10182  1.0000
  H   H23       1.0  0.18716  0.72946  0.86861  1.0000
  H   H24       1.0  0.81285  0.27055  0.13139  1.0000
  H   H25       1.0  0.30272  0.62627  0.02493  1.0000
  H   H26       1.0  0.69728  0.37373  0.97507  1.0000
  H   H27       1.0  0.51501  0.73670  0.05670  1.0000
  H   H28       1.0  0.48499  0.26330  0.94330  1.0000
  H   H29       1.0  0.45903  0.48853  0.88722  1.0000
  H   H30       1.0  0.54097  0.51147  0.11278  1.0000
  H   H31       1.0  0.28947  0.50924  0.78040  1.0000
  H   H32       1.0  0.71053  0.49076  0.21960  1.0000
  H   H33       1.0  0.62190  0.97677  0.20613  1.0000
  H   H34       1.0  0.37810  0.02323  0.79387  1.0000
  H   H35       1.0  0.79626  0.00675  0.13986  1.0000
  H   H36       1.0  0.20374  0.99325  0.86014  1.0000
  H   H37       1.0  0.30643  0.50550  0.55292  1.0000
  H   H38       1.0  0.69357  0.49450  0.44708  1.0000
  H   H39       1.0  0.29523  0.38944  0.39117  1.0000
  H   H40       1.0  0.70477  0.61056  0.60883  1.0000
  C   C1        1.0  0.83553  0.14386  0.33108  1.0000
  C   C2        1.0  0.16447  0.85614  0.66892  1.0000
  C   C3        1.0  0.07905  0.33981  0.45353  1.0000
  C   C4        1.0  0.92095  0.66019  0.54647  1.0000
  C   C5        1.0  0.85678  0.29492  0.54280  1.0000
  C   C6        1.0  0.14322  0.70508  0.45720  1.0000
  C   C7        1.0  0.63371  0.23387  0.65045  1.0000
  C   C8        1.0  0.36629  0.76614  0.34955  1.0000
  C   C9        1.0  0.46819  0.25077  0.58546  1.0000
  C   C10       1.0  0.53181  0.74923  0.41454  1.0000
  C   C11       1.0  0.31481  0.14182  0.53450  1.0000
  C   C12       1.0  0.68519  0.85818  0.46550  1.0000
  C   C13       1.0  0.90578  0.43478  0.77800  1.0000
  C   C14       1.0  0.09421  0.56522  0.22200  1.0000
  C   C15       1.0  0.01131  0.37370  0.85375  1.0000
  C   C16       1.0  0.98869  0.62630  0.14625  1.0000
  C   C17       1.0  0.01866  0.23945  0.81193  1.0000
  C   C18       1.0  0.98134  0.76055  0.18808  1.0000
  C   C19       1.0  0.28907  0.90755  0.05740  1.0000
  C   C20       1.0  0.71093  0.09245  0.94260  1.0000
  C   C21       1.0  0.31267  0.78581  0.94474  1.0000
  C   C22       1.0  0.68733  0.21419  0.05525  1.0000
  C   C23       1.0  0.38890  0.68014  0.98132  1.0000
  C   C24       1.0  0.61110  0.31986  0.01868  1.0000
  C   C25       1.0  0.41265  0.56718  0.85883  1.0000
  C   C26       1.0  0.58735  0.43282  0.14117  1.0000
  C   C27       1.0  0.54791  0.63975  0.80735  1.0000
  C   C28       1.0  0.45209  0.36025  0.19265  1.0000
  N   N1        1.0  0.99600  0.21992  0.33815  1.0000
  N   N2        1.0  0.00400  0.78008  0.66185  1.0000
  N   N3        1.0  0.01592  0.37708  0.55899  1.0000
  N   N4        1.0  0.98408  0.62292  0.44101  1.0000
  N   N5        1.0  0.75622  0.18116  0.42856  1.0000
  N   N6        1.0  0.24378  0.81884  0.57144  1.0000
  N   N7        1.0  0.75206  0.02209  0.22192  1.0000
  N   N8        1.0  0.24794  0.97792  0.77808  1.0000
  N   N9        1.0  0.23446  0.42187  0.46352  1.0000
  N   N10       1.0  0.76554  0.57813  0.53648  1.0000
  N   N11       1.0  0.79239  0.32759  0.64968  1.0000
  N   N12       1.0  0.20761  0.67241  0.35032  1.0000
  O   O1        1.0  0.38963  0.95039  0.17382  1.0000
  O   O2        1.0  0.61037  0.04961  0.82618  1.0000
  O   O3        1.0  0.17395  0.96330  0.02755  1.0000
  O   O4        1.0  0.82605  0.03670  0.97245  1.0000
  O   O5        1.0  0.70062  0.69888  0.88372  1.0000
  O   O6        1.0  0.29938  0.30112  0.11628  1.0000
  O   O7        1.0  0.49872  0.63944  0.69153  1.0000
  O   O8        1.0  0.50129  0.36056  0.30847  1.0000
