data_image0
_chemical_formula_structural       Mg4H32C16O28
_chemical_formula_sum              "Mg4 H32 C16 O28"
_cell_length_a       6.90289
_cell_length_b       10.2733
_cell_length_c       10.851
_cell_angle_alpha    90.0002
_cell_angle_beta     97.9689
_cell_angle_gamma    90.0006

_space_group_name_H-M_alt    "P 1"
_space_group_IT_number       1

loop_
  _space_group_symop_operation_xyz
  'x, y, z'

loop_
  _atom_site_type_symbol
  _atom_site_label
  _atom_site_symmetry_multiplicity
  _atom_site_fract_x
  _atom_site_fract_y
  _atom_site_fract_z
  _atom_site_occupancy
  Mg  Mg1       1.0  0.05953  0.61610  0.80753  1.0000
  Mg  Mg2       1.0  0.44046  0.11610  0.69246  1.0000
  Mg  Mg3       1.0  0.94046  0.38390  0.19247  1.0000
  Mg  Mg4       1.0  0.55955  0.88390  0.30754  1.0000
  H   H1        1.0  0.78042  0.68588  0.61736  1.0000
  H   H2        1.0  0.71957  0.18588  0.88263  1.0000
  H   H3        1.0  0.21958  0.31412  0.38264  1.0000
  H   H4        1.0  0.28042  0.81412  0.11737  1.0000
  H   H5        1.0  0.97860  0.67618  0.56598  1.0000
  H   H6        1.0  0.52138  0.17618  0.93401  1.0000
  H   H7        1.0  0.02140  0.32382  0.43402  1.0000
  H   H8        1.0  0.47861  0.82382  0.06599  1.0000
  H   H9        1.0  0.36990  0.63040  0.97740  1.0000
  H   H10       1.0  0.13006  0.13039  0.52260  1.0000
  H   H11       1.0  0.63011  0.36961  0.02260  1.0000
  H   H12       1.0  0.86993  0.86962  0.47741  1.0000
  H   H13       1.0  0.22847  0.52845  0.03258  1.0000
  H   H14       1.0  0.27151  0.02846  0.46743  1.0000
  H   H15       1.0  0.77152  0.47156  0.96742  1.0000
  H   H16       1.0  0.72849  0.97155  0.53257  1.0000
  H   H17       1.0  0.70953  0.89202  0.82390  1.0000
  H   H18       1.0  0.79049  0.39201  0.67612  1.0000
  H   H19       1.0  0.29047  0.10799  0.17610  1.0000
  H   H20       1.0  0.20952  0.60799  0.32388  1.0000
  H   H21       1.0  0.84358  0.89774  0.97713  1.0000
  H   H22       1.0  0.65648  0.39776  0.52288  1.0000
  H   H23       1.0  0.15643  0.10227  0.02288  1.0000
  H   H24       1.0  0.34354  0.60224  0.47712  1.0000
  H   H25       1.0  0.15002  0.98208  0.86937  1.0000
  H   H26       1.0  0.34999  0.48208  0.63064  1.0000
  H   H27       1.0  0.84997  0.01792  0.13063  1.0000
  H   H28       1.0  0.65002  0.51791  0.36936  1.0000
  H   H29       1.0  0.00879  0.96419  0.71961  1.0000
  H   H30       1.0  0.49120  0.46418  0.78038  1.0000
  H   H31       1.0  0.99121  0.03581  0.28038  1.0000
  H   H32       1.0  0.50879  0.53583  0.21962  1.0000
  C   C1        1.0  0.72292  0.70999  0.92141  1.0000
  C   C2        1.0  0.77707  0.20998  0.57860  1.0000
  C   C3        1.0  0.27708  0.29002  0.07859  1.0000
  C   C4        1.0  0.22294  0.79002  0.42140  1.0000
  C   C5        1.0  0.81428  0.83900  0.89163  1.0000
  C   C6        1.0  0.68573  0.33902  0.60838  1.0000
  C   C7        1.0  0.18571  0.16100  0.10837  1.0000
  C   C8        1.0  0.31428  0.66098  0.39162  1.0000
  C   C9        1.0  0.09834  0.91128  0.79579  1.0000
  C   C10       1.0  0.40167  0.41127  0.70421  1.0000
  C   C11       1.0  0.90166  0.08872  0.20422  1.0000
  C   C12       1.0  0.59833  0.58873  0.29578  1.0000
  C   C13       1.0  0.27471  0.84785  0.74810  1.0000
  C   C14       1.0  0.22531  0.34785  0.75189  1.0000
  C   C15       1.0  0.72530  0.15215  0.25190  1.0000
  C   C16       1.0  0.77470  0.65215  0.24811  1.0000
  O   O1        1.0  0.57991  0.71343  0.98154  1.0000
  O   O2        1.0  0.92009  0.21344  0.51846  1.0000
  O   O3        1.0  0.42008  0.28657  0.01846  1.0000
  O   O4        1.0  0.07991  0.78656  0.48154  1.0000
  O   O5        1.0  0.79651  0.60600  0.88208  1.0000
  O   O6        1.0  0.70350  0.10601  0.61792  1.0000
  O   O7        1.0  0.20348  0.39400  0.11792  1.0000
  O   O8        1.0  0.29651  0.89399  0.38208  1.0000
  O   O9        1.0  0.99004  0.80929  0.84282  1.0000
  O   O10       1.0  0.50997  0.30929  0.65716  1.0000
  O   O11       1.0  0.00996  0.19071  0.15717  1.0000
  O   O12       1.0  0.49004  0.69070  0.34284  1.0000
  O   O13       1.0  0.40331  0.92434  0.71671  1.0000
  O   O14       1.0  0.09669  0.42435  0.78328  1.0000
  O   O15       1.0  0.59669  0.07565  0.28330  1.0000
  O   O16       1.0  0.90331  0.57565  0.21671  1.0000
  O   O17       1.0  0.28159  0.72481  0.74355  1.0000
  O   O18       1.0  0.21839  0.22483  0.75643  1.0000
  O   O19       1.0  0.71841  0.27518  0.25645  1.0000
  O   O20       1.0  0.78161  0.77518  0.24357  1.0000
  O   O21       1.0  0.89800  0.63216  0.62392  1.0000
  O   O22       1.0  0.60197  0.13217  0.87607  1.0000
  O   O23       1.0  0.10199  0.36784  0.37608  1.0000
  O   O24       1.0  0.39802  0.86783  0.12393  1.0000
  O   O25       1.0  0.23031  0.60866  0.98097  1.0000
  O   O26       1.0  0.26969  0.10865  0.51902  1.0000
  O   O27       1.0  0.76967  0.39133  0.01904  1.0000
  O   O28       1.0  0.73030  0.89135  0.48098  1.0000
