data_image0
_chemical_formula_structural       Cd2H24C32N12O8
_chemical_formula_sum              "Cd2 H24 C32 N12 O8"
_cell_length_a       7.07956
_cell_length_b       9.53437
_cell_length_c       13.0396
_cell_angle_alpha    111.422
_cell_angle_beta     103.173
_cell_angle_gamma    89.9967

_space_group_name_H-M_alt    "P 1"
_space_group_IT_number       1

loop_
  _space_group_symop_operation_xyz
  'x, y, z'

loop_
  _atom_site_type_symbol
  _atom_site_label
  _atom_site_symmetry_multiplicity
  _atom_site_fract_x
  _atom_site_fract_y
  _atom_site_fract_z
  _atom_site_occupancy
  Cd  Cd1       1.0  0.75003  0.07187  0.00004  1.0000
  Cd  Cd2       1.0  0.24995  0.92814  0.99997  1.0000
  H   H1        1.0  0.01576  0.96251  0.58525  1.0000
  H   H2        1.0  0.48452  0.37722  0.41473  1.0000
  H   H3        1.0  0.98425  0.03749  0.41475  1.0000
  H   H4        1.0  0.51548  0.62279  0.58527  1.0000
  H   H5        1.0  0.57965  0.20079  0.55342  1.0000
  H   H6        1.0  0.92044  0.64723  0.44645  1.0000
  H   H7        1.0  0.42035  0.79921  0.44658  1.0000
  H   H8        1.0  0.07954  0.35278  0.55355  1.0000
  H   H9        1.0  0.90685  0.29173  0.68956  1.0000
  H   H10       1.0  0.59320  0.60188  0.31036  1.0000
  H   H11       1.0  0.09316  0.70825  0.31044  1.0000
  H   H12       1.0  0.40679  0.39811  0.68964  1.0000
  H   H13       1.0  0.03897  0.25560  0.97500  1.0000
  H   H14       1.0  0.46118  0.28054  0.02506  1.0000
  H   H15       1.0  0.96103  0.74439  0.02499  1.0000
  H   H16       1.0  0.53881  0.71946  0.97493  1.0000
  H   H17       1.0  0.03593  0.41147  0.92935  1.0000
  H   H18       1.0  0.46424  0.48197  0.07051  1.0000
  H   H19       1.0  0.96408  0.58853  0.07066  1.0000
  H   H20       1.0  0.53575  0.51803  0.92948  1.0000
  H   H21       1.0  0.14273  0.24636  0.86111  1.0000
  H   H22       1.0  0.35768  0.38534  0.13903  1.0000
  H   H23       1.0  0.85727  0.75363  0.13888  1.0000
  H   H24       1.0  0.64231  0.61466  0.86097  1.0000
  C   C1        1.0  0.52125  0.10183  0.77106  1.0000
  C   C2        1.0  0.97909  0.33077  0.22888  1.0000
  C   C3        1.0  0.47875  0.89817  0.22894  1.0000
  C   C4        1.0  0.02091  0.66924  0.77113  1.0000
  C   C5        1.0  0.47215  0.11879  0.66605  1.0000
  C   C6        1.0  0.02809  0.45263  0.33390  1.0000
  C   C7        1.0  0.52786  0.88120  0.33395  1.0000
  C   C8        1.0  0.97191  0.54738  0.66611  1.0000
  C   C9        1.0  0.61373  0.18702  0.63489  1.0000
  C   C10       1.0  0.88649  0.55201  0.36501  1.0000
  C   C11       1.0  0.38628  0.81297  0.36511  1.0000
  C   C12       1.0  0.11350  0.44799  0.63499  1.0000
  C   C13       1.0  0.79310  0.23873  0.71056  1.0000
  C   C14       1.0  0.70708  0.52803  0.28935  1.0000
  C   C15       1.0  0.20691  0.76127  0.28944  1.0000
  C   C16       1.0  0.29291  0.47197  0.71065  1.0000
  C   C17       1.0  0.83144  0.22348  0.81681  1.0000
  C   C18       1.0  0.66886  0.40658  0.18314  1.0000
  C   C19       1.0  0.16857  0.77652  0.18319  1.0000
  C   C20       1.0  0.33113  0.59342  0.81685  1.0000
  C   C21       1.0  0.02233  0.28736  0.90096  1.0000
  C   C22       1.0  0.47795  0.38635  0.09906  1.0000
  C   C23       1.0  0.97767  0.71264  0.09904  1.0000
  C   C24       1.0  0.52205  0.61365  0.90094  1.0000
  C   C25       1.0  0.37508  0.02960  0.80372  1.0000
  C   C26       1.0  0.12524  0.22590  0.19622  1.0000
  C   C27       1.0  0.62491  0.97040  0.19628  1.0000
  C   C28       1.0  0.87476  0.77411  0.80378  1.0000
  C   C29       1.0  0.27478  0.07015  0.59441  1.0000
  C   C30       1.0  0.22547  0.47560  0.40551  1.0000
  C   C31       1.0  0.72523  0.92984  0.40558  1.0000
  C   C32       1.0  0.77453  0.52441  0.59449  1.0000
  N   N1        1.0  0.69774  0.15475  0.84497  1.0000
  N   N2        1.0  0.80260  0.30980  0.15498  1.0000
  N   N3        1.0  0.30226  0.84525  0.15504  1.0000
  N   N4        1.0  0.19740  0.69020  0.84502  1.0000
  N   N5        1.0  0.20013  0.97931  0.73525  1.0000
  N   N6        1.0  0.30022  0.24408  0.26467  1.0000
  N   N7        1.0  0.79986  0.02068  0.26474  1.0000
  N   N8        1.0  0.69978  0.75592  0.73533  1.0000
  N   N9        1.0  0.15809  0.00052  0.63473  1.0000
  N   N10       1.0  0.34220  0.36571  0.36521  1.0000
  N   N11       1.0  0.84191  0.99948  0.36527  1.0000
  N   N12       1.0  0.65780  0.63429  0.63479  1.0000
  O   O1        1.0  0.41934  0.02067  0.90401  1.0000
  O   O2        1.0  0.08091  0.11680  0.09594  1.0000
  O   O3        1.0  0.58065  0.97933  0.09599  1.0000
  O   O4        1.0  0.91909  0.88321  0.90407  1.0000
  O   O5        1.0  0.21482  0.09291  0.50331  1.0000
  O   O6        1.0  0.28529  0.58937  0.49663  1.0000
  O   O7        1.0  0.78520  0.90709  0.49669  1.0000
  O   O8        1.0  0.71471  0.41064  0.50337  1.0000
