data_image0
_chemical_formula_structural       Zn4P4H12C16N8O12
_chemical_formula_sum              "Zn4 P4 H12 C16 N8 O12"
_cell_length_a       7.56048
_cell_length_b       7.91265
_cell_length_c       10.3914
_cell_angle_alpha    90
_cell_angle_beta     100.404
_cell_angle_gamma    90.0001

_space_group_name_H-M_alt    "P 1"
_space_group_IT_number       1

loop_
  _space_group_symop_operation_xyz
  'x, y, z'

loop_
  _atom_site_type_symbol
  _atom_site_label
  _atom_site_symmetry_multiplicity
  _atom_site_fract_x
  _atom_site_fract_y
  _atom_site_fract_z
  _atom_site_occupancy
  Zn  Zn1       1.0  0.64326  0.28085  0.60584  1.0000
  Zn  Zn2       1.0  0.85674  0.78085  0.89416  1.0000
  Zn  Zn3       1.0  0.35674  0.71915  0.39416  1.0000
  Zn  Zn4       1.0  0.14326  0.21915  0.10584  1.0000
  P   P1        1.0  0.79261  0.18352  0.89274  1.0000
  P   P2        1.0  0.70739  0.68352  0.60726  1.0000
  P   P3        1.0  0.20739  0.81648  0.10726  1.0000
  P   P4        1.0  0.29261  0.31648  0.39274  1.0000
  H   H1        1.0  0.52563  0.21693  0.07803  1.0000
  H   H2        1.0  0.97437  0.71694  0.42197  1.0000
  H   H3        1.0  0.47437  0.78307  0.92197  1.0000
  H   H4        1.0  0.02563  0.28307  0.57803  1.0000
  H   H5        1.0  0.09342  0.44688  0.84270  1.0000
  H   H6        1.0  0.40658  0.94688  0.65730  1.0000
  H   H7        1.0  0.90658  0.55312  0.15730  1.0000
  H   H8        1.0  0.59342  0.05312  0.34270  1.0000
  H   H9        1.0  0.27429  0.46391  0.65559  1.0000
  H   H10       1.0  0.22571  0.96391  0.84441  1.0000
  H   H11       1.0  0.72570  0.53608  0.34441  1.0000
  H   H12       1.0  0.77429  0.03609  0.15559  1.0000
  C   C1        1.0  0.56817  0.27515  0.88082  1.0000
  C   C2        1.0  0.93183  0.77515  0.61918  1.0000
  C   C3        1.0  0.43183  0.72484  0.11918  1.0000
  C   C4        1.0  0.06817  0.22484  0.38082  1.0000
  C   C5        1.0  0.47053  0.27141  0.98303  1.0000
  C   C6        1.0  0.02947  0.77141  0.51697  1.0000
  C   C7        1.0  0.52947  0.72859  0.01697  1.0000
  C   C8        1.0  0.97053  0.22859  0.48303  1.0000
  C   C9        1.0  0.23068  0.40053  0.85244  1.0000
  C   C10       1.0  0.26932  0.90053  0.64756  1.0000
  C   C11       1.0  0.76931  0.59947  0.14756  1.0000
  C   C12       1.0  0.73068  0.09947  0.35244  1.0000
  C   C13       1.0  0.32798  0.40796  0.75078  1.0000
  C   C14       1.0  0.17202  0.90796  0.74922  1.0000
  C   C15       1.0  0.67202  0.59204  0.24922  1.0000
  C   C16       1.0  0.82798  0.09204  0.25078  1.0000
  N   N1        1.0  0.49285  0.33952  0.76403  1.0000
  N   N2        1.0  0.00715  0.83951  0.73597  1.0000
  N   N3        1.0  0.50714  0.66048  0.23597  1.0000
  N   N4        1.0  0.99285  0.16049  0.26403  1.0000
  N   N5        1.0  0.30131  0.32807  0.96721  1.0000
  N   N6        1.0  0.19869  0.82807  0.53279  1.0000
  N   N7        1.0  0.69869  0.67193  0.03279  1.0000
  N   N8        1.0  0.80131  0.17193  0.46721  1.0000
  O   O1        1.0  0.82929  0.18927  0.75266  1.0000
  O   O2        1.0  0.67071  0.68927  0.74734  1.0000
  O   O3        1.0  0.17071  0.81073  0.24734  1.0000
  O   O4        1.0  0.32929  0.31073  0.25266  1.0000
  O   O5        1.0  0.91713  0.29517  0.99027  1.0000
  O   O6        1.0  0.58287  0.79517  0.50973  1.0000
  O   O7        1.0  0.08286  0.70484  0.00973  1.0000
  O   O8        1.0  0.41713  0.20483  0.49027  1.0000
  O   O9        1.0  0.77356  0.00465  0.94595  1.0000
  O   O10       1.0  0.72645  0.50465  0.55405  1.0000
  O   O11       1.0  0.22645  0.99536  0.05405  1.0000
  O   O12       1.0  0.27355  0.49536  0.44595  1.0000
