data_image0
_chemical_formula_structural       Y2H12C10O16
_chemical_formula_sum              "Y2 H12 C10 O16"
_cell_length_a       6.6909
_cell_length_b       6.69087
_cell_length_c       11.1652
_cell_angle_alpha    105.379
_cell_angle_beta     105.378
_cell_angle_gamma    94.1981

_space_group_name_H-M_alt    "P 1"
_space_group_IT_number       1

loop_
  _space_group_symop_operation_xyz
  'x, y, z'

loop_
  _atom_site_type_symbol
  _atom_site_label
  _atom_site_symmetry_multiplicity
  _atom_site_fract_x
  _atom_site_fract_y
  _atom_site_fract_z
  _atom_site_occupancy
  Y   Y1        1.0  0.87891  0.87890  0.69988  1.0000
  Y   Y2        1.0  0.12110  0.12108  0.30011  1.0000
  H   H1        1.0  0.75622  0.91220  0.43330  1.0000
  H   H2        1.0  0.08781  0.24380  0.56669  1.0000
  H   H3        1.0  0.24373  0.08781  0.56670  1.0000
  H   H4        1.0  0.91220  0.75626  0.43331  1.0000
  H   H5        1.0  0.45866  0.67863  0.30575  1.0000
  H   H6        1.0  0.32136  0.54136  0.69425  1.0000
  H   H7        1.0  0.54134  0.32136  0.69424  1.0000
  H   H8        1.0  0.67864  0.45864  0.30576  1.0000
  H   H9        1.0  0.26152  0.58287  0.15199  1.0000
  H   H10       1.0  0.41711  0.73850  0.84801  1.0000
  H   H11       1.0  0.73847  0.41712  0.84801  1.0000
  H   H12       1.0  0.58291  0.26152  0.15199  1.0000
  C   C1        1.0  0.31574  0.56459  0.25001  1.0000
  C   C2        1.0  0.43540  0.68427  0.75000  1.0000
  C   C3        1.0  0.68425  0.43540  0.74999  1.0000
  C   C4        1.0  0.56461  0.31573  0.25001  1.0000
  C   C5        1.0  0.15017  0.61156  0.31918  1.0000
  C   C6        1.0  0.38845  0.84986  0.68082  1.0000
  C   C7        1.0  0.84984  0.38844  0.68082  1.0000
  C   C8        1.0  0.61155  0.15015  0.31918  1.0000
  C   C9        1.0  0.92095  0.07905  0.99999  1.0000
  C   C10       1.0  0.07905  0.92094  0.00001  1.0000
  O   O1        1.0  0.35521  0.35520  0.24507  1.0000
  O   O2        1.0  0.64479  0.64480  0.75493  1.0000
  O   O3        1.0  0.08390  0.47451  0.36487  1.0000
  O   O4        1.0  0.52547  0.91612  0.63514  1.0000
  O   O5        1.0  0.91611  0.52547  0.63514  1.0000
  O   O6        1.0  0.47454  0.08388  0.36485  1.0000
  O   O7        1.0  0.08492  0.78755  0.33040  1.0000
  O   O8        1.0  0.21244  0.91510  0.66960  1.0000
  O   O9        1.0  0.91509  0.21244  0.66962  1.0000
  O   O10       1.0  0.78758  0.08490  0.33039  1.0000
  O   O11       1.0  0.82633  0.10001  0.89078  1.0000
  O   O12       1.0  0.89998  0.17369  0.10923  1.0000
  O   O13       1.0  0.17365  0.89998  0.10921  1.0000
  O   O14       1.0  0.10002  0.82632  0.89077  1.0000
  O   O15       1.0  0.79737  0.79735  0.47092  1.0000
  O   O16       1.0  0.20264  0.20264  0.52908  1.0000
