data_image0
_chemical_formula_structural       Co4H24C32S8N16
_chemical_formula_sum              "Co4 H24 C32 S8 N16"
_cell_length_a       7.7552
_cell_length_b       7.68921
_cell_length_c       16.1607
_cell_angle_alpha    89.9998
_cell_angle_beta     90.0002
_cell_angle_gamma    89.9992

_space_group_name_H-M_alt    "P 1"
_space_group_IT_number       1

loop_
  _space_group_symop_operation_xyz
  'x, y, z'

loop_
  _atom_site_type_symbol
  _atom_site_label
  _atom_site_symmetry_multiplicity
  _atom_site_fract_x
  _atom_site_fract_y
  _atom_site_fract_z
  _atom_site_occupancy
  Co  Co1       1.0  0.08283  0.81629  0.37338  1.0000
  Co  Co2       1.0  0.41717  0.18371  0.87338  1.0000
  Co  Co3       1.0  0.91719  0.31628  0.12662  1.0000
  Co  Co4       1.0  0.58282  0.68372  0.62662  1.0000
  H   H1        1.0  0.42188  0.74519  0.29325  1.0000
  H   H2        1.0  0.07811  0.25481  0.79325  1.0000
  H   H3        1.0  0.57813  0.24520  0.20675  1.0000
  H   H4        1.0  0.92188  0.75480  0.70676  1.0000
  H   H5        1.0  0.53300  0.55716  0.17746  1.0000
  H   H6        1.0  0.96700  0.44285  0.67745  1.0000
  H   H7        1.0  0.46700  0.05718  0.32254  1.0000
  H   H8        1.0  0.03301  0.94282  0.82255  1.0000
  H   H9        1.0  0.31262  0.37204  0.10092  1.0000
  H   H10       1.0  0.18738  0.62796  0.60092  1.0000
  H   H11       1.0  0.68738  0.87206  0.39908  1.0000
  H   H12       1.0  0.81263  0.12795  0.89907  1.0000
  H   H13       1.0  0.04163  0.42678  0.37251  1.0000
  H   H14       1.0  0.45835  0.57323  0.87250  1.0000
  H   H15       1.0  0.95836  0.92675  0.12749  1.0000
  H   H16       1.0  0.54163  0.07324  0.62750  1.0000
  H   H17       1.0  0.87886  0.20510  0.45923  1.0000
  H   H18       1.0  0.62113  0.79490  0.95923  1.0000
  H   H19       1.0  0.12114  0.70509  0.04077  1.0000
  H   H20       1.0  0.37886  0.29491  0.54077  1.0000
  H   H21       1.0  0.69485  0.32316  0.57538  1.0000
  H   H22       1.0  0.80515  0.67684  0.07538  1.0000
  H   H23       1.0  0.30514  0.82315  0.92461  1.0000
  H   H24       1.0  0.19486  0.17684  0.42461  1.0000
  C   C1        1.0  0.05135  0.58840  0.22596  1.0000
  C   C2        1.0  0.44865  0.41160  0.72596  1.0000
  C   C3        1.0  0.94865  0.08842  0.27403  1.0000
  C   C4        1.0  0.55135  0.91159  0.77404  1.0000
  C   C5        1.0  0.33481  0.66918  0.25477  1.0000
  C   C6        1.0  0.16520  0.33081  0.75477  1.0000
  C   C7        1.0  0.66520  0.16920  0.24523  1.0000
  C   C8        1.0  0.83480  0.83079  0.74524  1.0000
  C   C9        1.0  0.39601  0.56423  0.19119  1.0000
  C   C10       1.0  0.10399  0.43578  0.69119  1.0000
  C   C11       1.0  0.60400  0.06426  0.30881  1.0000
  C   C12       1.0  0.89601  0.93575  0.80881  1.0000
  C   C13       1.0  0.27557  0.46450  0.14884  1.0000
  C   C14       1.0  0.22443  0.53551  0.64883  1.0000
  C   C15       1.0  0.72443  0.96452  0.35116  1.0000
  C   C16       1.0  0.77557  0.03549  0.85117  1.0000
  C   C17       1.0  0.87219  0.69071  0.51223  1.0000
  C   C18       1.0  0.62780  0.30930  0.01223  1.0000
  C   C19       1.0  0.12780  0.19069  0.98778  1.0000
  C   C20       1.0  0.37220  0.80930  0.48778  1.0000
  C   C21       1.0  0.96395  0.46497  0.42567  1.0000
  C   C22       1.0  0.53604  0.53502  0.92567  1.0000
  C   C23       1.0  0.03604  0.96496  0.07433  1.0000
  C   C24       1.0  0.46395  0.03504  0.57433  1.0000
  C   C25       1.0  0.87364  0.34367  0.47230  1.0000
  C   C26       1.0  0.62635  0.65633  0.97229  1.0000
  C   C27       1.0  0.12637  0.84365  0.02771  1.0000
  C   C28       1.0  0.37362  0.15635  0.52770  1.0000
  C   C29       1.0  0.77301  0.40782  0.53648  1.0000
  C   C30       1.0  0.72698  0.59217  0.03648  1.0000
  C   C31       1.0  0.22698  0.90782  0.96352  1.0000
  C   C32       1.0  0.27301  0.09218  0.46352  1.0000
  S   S1        1.0  0.83611  0.60274  0.24146  1.0000
  S   S2        1.0  0.66388  0.39726  0.74146  1.0000
  S   S3        1.0  0.16390  0.10272  0.25854  1.0000
  S   S4        1.0  0.33611  0.89727  0.75855  1.0000
  S   S5        1.0  0.89005  0.89908  0.54437  1.0000
  S   S6        1.0  0.60995  0.10092  0.04437  1.0000
  S   S7        1.0  0.10995  0.39908  0.95563  1.0000
  S   S8        1.0  0.39005  0.60092  0.45564  1.0000
  N   N1        1.0  0.16628  0.68020  0.27324  1.0000
  N   N2        1.0  0.33371  0.31979  0.77324  1.0000
  N   N3        1.0  0.83371  0.18021  0.22676  1.0000
  N   N4        1.0  0.66631  0.81978  0.72677  1.0000
  N   N5        1.0  0.10674  0.47674  0.16551  1.0000
  N   N6        1.0  0.39326  0.52325  0.66551  1.0000
  N   N7        1.0  0.89327  0.97674  0.33449  1.0000
  N   N8        1.0  0.60673  0.02325  0.83450  1.0000
  N   N9        1.0  0.96273  0.63499  0.44440  1.0000
  N   N10       1.0  0.53727  0.36500  0.94440  1.0000
  N   N11       1.0  0.03726  0.13498  0.05560  1.0000
  N   N12       1.0  0.46274  0.86502  0.55561  1.0000
  N   N13       1.0  0.76823  0.57756  0.55533  1.0000
  N   N14       1.0  0.73177  0.42244  0.05533  1.0000
  N   N15       1.0  0.23177  0.07755  0.94466  1.0000
  N   N16       1.0  0.26823  0.92245  0.44466  1.0000
