data_image0
_chemical_formula_structural       Hg2H16C20S4I4N4
_chemical_formula_sum              "Hg2 H16 C20 S4 I4 N4"
_cell_length_a       8.93722
_cell_length_b       9.00629
_cell_length_c       11.1228
_cell_angle_alpha    69.416
_cell_angle_beta     78.1308
_cell_angle_gamma    62.249

_space_group_name_H-M_alt    "P 1"
_space_group_IT_number       1

loop_
  _space_group_symop_operation_xyz
  'x, y, z'

loop_
  _atom_site_type_symbol
  _atom_site_label
  _atom_site_symmetry_multiplicity
  _atom_site_fract_x
  _atom_site_fract_y
  _atom_site_fract_z
  _atom_site_occupancy
  Hg  Hg1       1.0  0.64201  0.92466  0.20081  1.0000
  Hg  Hg2       1.0  0.35799  0.07534  0.79919  1.0000
  H   H1        1.0  0.35591  0.65247  0.15564  1.0000
  H   H2        1.0  0.64409  0.34753  0.84436  1.0000
  H   H3        1.0  0.63129  0.67182  0.09510  1.0000
  H   H4        1.0  0.36871  0.32818  0.90490  1.0000
  H   H5        1.0  0.90038  0.39356  0.10178  1.0000
  H   H6        1.0  0.09962  0.60643  0.89822  1.0000
  H   H7        1.0  0.87646  0.11094  0.16044  1.0000
  H   H8        1.0  0.12354  0.88906  0.83956  1.0000
  H   H9        1.0  0.28947  0.45167  0.42735  1.0000
  H   H10       1.0  0.71052  0.54833  0.57265  1.0000
  H   H11       1.0  0.22448  0.58263  0.60451  1.0000
  H   H12       1.0  0.77551  0.41737  0.39549  1.0000
  H   H13       1.0  0.95007  0.85670  0.60456  1.0000
  H   H14       1.0  0.04993  0.14330  0.39544  1.0000
  H   H15       1.0  0.75472  0.97628  0.42920  1.0000
  H   H16       1.0  0.24528  0.02372  0.57079  1.0000
  C   C1        1.0  0.47326  0.36959  0.19233  1.0000
  C   C2        1.0  0.52674  0.63041  0.80768  1.0000
  C   C3        1.0  0.47336  0.53441  0.15797  1.0000
  C   C4        1.0  0.52664  0.46558  0.84203  1.0000
  C   C5        1.0  0.62790  0.54440  0.12463  1.0000
  C   C6        1.0  0.37211  0.45560  0.87537  1.0000
  C   C7        1.0  0.77688  0.39145  0.12733  1.0000
  C   C8        1.0  0.22313  0.60855  0.87267  1.0000
  C   C9        1.0  0.76464  0.23331  0.16134  1.0000
  C   C10       1.0  0.23537  0.76669  0.83866  1.0000
  C   C11       1.0  0.05707  0.64807  0.33364  1.0000
  C   C12       1.0  0.94293  0.35193  0.66636  1.0000
  C   C13       1.0  0.17297  0.56905  0.42932  1.0000
  C   C14       1.0  0.82703  0.43095  0.57068  1.0000
  C   C15       1.0  0.13549  0.64321  0.52863  1.0000
  C   C16       1.0  0.86451  0.35679  0.47138  1.0000
  C   C17       1.0  0.98498  0.79340  0.52923  1.0000
  C   C18       1.0  0.01502  0.20661  0.47076  1.0000
  C   C19       1.0  0.87610  0.86192  0.43059  1.0000
  C   C20       1.0  0.12390  0.13808  0.56940  1.0000
  S   S1        1.0  0.09065  0.57302  0.19730  1.0000
  S   S2        1.0  0.90935  0.42698  0.80270  1.0000
  S   S3        1.0  0.28872  0.33096  0.24096  1.0000
  S   S4        1.0  0.71128  0.66904  0.75905  1.0000
  I   I1        1.0  0.76798  0.95169  0.95618  1.0000
  I   I2        1.0  0.23203  0.04831  0.04382  1.0000
  I   I3        1.0  0.45064  0.80982  0.39413  1.0000
  I   I4        1.0  0.54936  0.19018  0.60587  1.0000
  N   N1        1.0  0.61593  0.22198  0.19355  1.0000
  N   N2        1.0  0.38408  0.77802  0.80645  1.0000
  N   N3        1.0  0.91086  0.79148  0.33407  1.0000
  N   N4        1.0  0.08913  0.20852  0.66593  1.0000
