data_image0
_chemical_formula_structural       Co2H32C40Br4N12
_chemical_formula_sum              "Co2 H32 C40 Br4 N12"
_cell_length_a       9.41883
_cell_length_b       10.6842
_cell_length_c       10.7339
_cell_angle_alpha    67.4381
_cell_angle_beta     80.8554
_cell_angle_gamma    83.1613

_space_group_name_H-M_alt    "P 1"
_space_group_IT_number       1

loop_
  _space_group_symop_operation_xyz
  'x, y, z'

loop_
  _atom_site_type_symbol
  _atom_site_label
  _atom_site_symmetry_multiplicity
  _atom_site_fract_x
  _atom_site_fract_y
  _atom_site_fract_z
  _atom_site_occupancy
  Co  Co1       1.0  0.25785  0.63723  0.66519  1.0000
  Co  Co2       1.0  0.74215  0.36276  0.33481  1.0000
  H   H1        1.0  0.61179  0.19265  0.80757  1.0000
  H   H2        1.0  0.38821  0.80735  0.19243  1.0000
  H   H3        1.0  0.87020  0.81314  0.18340  1.0000
  H   H4        1.0  0.12980  0.18686  0.81660  1.0000
  H   H5        1.0  0.60279  0.39200  0.95059  1.0000
  H   H6        1.0  0.39721  0.60800  0.04941  1.0000
  H   H7        1.0  0.97976  0.04659  0.75781  1.0000
  H   H8        1.0  0.02024  0.95341  0.24218  1.0000
  H   H9        1.0  0.34017  0.85656  0.95557  1.0000
  H   H10       1.0  0.65983  0.14344  0.04443  1.0000
  H   H11       1.0  0.86150  0.65296  0.50598  1.0000
  H   H12       1.0  0.13850  0.34704  0.49402  1.0000
  H   H13       1.0  0.93560  0.86053  0.51679  1.0000
  H   H14       1.0  0.06440  0.13947  0.48322  1.0000
  H   H15       1.0  0.74836  0.78069  0.02398  1.0000
  H   H16       1.0  0.25164  0.21931  0.97602  1.0000
  H   H17       1.0  0.75592  0.90115  0.85403  1.0000
  H   H18       1.0  0.24408  0.09885  0.14598  1.0000
  H   H19       1.0  0.33315  0.10115  0.70861  1.0000
  H   H20       1.0  0.66685  0.89885  0.29139  1.0000
  H   H21       1.0  0.51689  0.13413  0.64981  1.0000
  H   H22       1.0  0.48312  0.86587  0.35019  1.0000
  H   H23       1.0  0.60728  0.58524  0.57836  1.0000
  H   H24       1.0  0.39272  0.41476  0.42164  1.0000
  H   H25       1.0  0.62979  0.60350  0.99028  1.0000
  H   H26       1.0  0.37021  0.39650  0.00972  1.0000
  H   H27       1.0  0.03717  0.40048  0.74437  1.0000
  H   H28       1.0  0.96283  0.59953  0.25562  1.0000
  H   H29       1.0  0.80290  0.29160  0.83305  1.0000
  H   H30       1.0  0.19709  0.70840  0.16695  1.0000
  H   H31       1.0  0.75933  0.01554  0.59999  1.0000
  H   H32       1.0  0.24067  0.98446  0.40002  1.0000
  C   C1        1.0  0.56249  0.10861  0.89244  1.0000
  C   C2        1.0  0.43751  0.89139  0.10756  1.0000
  C   C3        1.0  0.92749  0.89537  0.10301  1.0000
  C   C4        1.0  0.07252  0.10463  0.89699  1.0000
  C   C5        1.0  0.91554  0.92004  0.96720  1.0000
  C   C6        1.0  0.08446  0.07997  0.03279  1.0000
  C   C7        1.0  0.47393  0.02723  0.86663  1.0000
  C   C8        1.0  0.52607  0.97277  0.13337  1.0000
  C   C9        1.0  0.70397  0.44176  0.91534  1.0000
  C   C10       1.0  0.29603  0.55824  0.08466  1.0000
  C   C11       1.0  0.98859  0.02565  0.86412  1.0000
  C   C12       1.0  0.01142  0.97435  0.13588  1.0000
  C   C13       1.0  0.96343  0.56215  0.81893  1.0000
  C   C14       1.0  0.03657  0.43785  0.18107  1.0000
  C   C15       1.0  0.54184  0.76268  0.63236  1.0000
  C   C16       1.0  0.45817  0.23732  0.36764  1.0000
  C   C17       1.0  0.41126  0.91867  0.97511  1.0000
  C   C18       1.0  0.58874  0.08133  0.02489  1.0000
  C   C19       1.0  0.78066  0.71607  0.54383  1.0000
  C   C20       1.0  0.21934  0.28393  0.45617  1.0000
  C   C21       1.0  0.82326  0.83605  0.55020  1.0000
  C   C22       1.0  0.17674  0.16395  0.44980  1.0000
  C   C23       1.0  0.82155  0.83598  0.93381  1.0000
  C   C24       1.0  0.17845  0.16402  0.06619  1.0000
  C   C25       1.0  0.84921  0.61866  0.88695  1.0000
  C   C26       1.0  0.15079  0.38134  0.11305  1.0000
  C   C27       1.0  0.44414  0.05918  0.72302  1.0000
  C   C28       1.0  0.55586  0.94082  0.27698  1.0000
  C   C29       1.0  0.64008  0.67695  0.58434  1.0000
  C   C30       1.0  0.35992  0.32305  0.41567  1.0000
  C   C31       1.0  0.71649  0.55991  0.93654  1.0000
  C   C32       1.0  0.28351  0.44009  0.06346  1.0000
  C   C33       1.0  0.94923  0.44284  0.79816  1.0000
  C   C34       1.0  0.05076  0.55716  0.20184  1.0000
  C   C35       1.0  0.58559  0.88168  0.63919  1.0000
  C   C36       1.0  0.41441  0.11832  0.36081  1.0000
  C   C37       1.0  0.81827  0.38403  0.84789  1.0000
  C   C38       1.0  0.18172  0.61597  0.15211  1.0000
  C   C39       1.0  0.72731  0.92159  0.59786  1.0000
  C   C40       1.0  0.27269  0.07841  0.40214  1.0000
  Br  Br1       1.0  0.35926  0.41262  0.72544  1.0000
  Br  Br2       1.0  0.64074  0.58738  0.27456  1.0000
  Br  Br3       1.0  0.20076  0.71811  0.44015  1.0000
  Br  Br4       1.0  0.79924  0.28188  0.55985  1.0000
  N   N1        1.0  0.07529  0.64700  0.78181  1.0000
  N   N2        1.0  0.92471  0.35300  0.21819  1.0000
  N   N3        1.0  0.03650  0.74961  0.82207  1.0000
  N   N4        1.0  0.96350  0.25039  0.17793  1.0000
  N   N5        1.0  0.46187  0.93891  0.68753  1.0000
  N   N6        1.0  0.53813  0.06109  0.31246  1.0000
  N   N7        1.0  0.39550  0.75772  0.67678  1.0000
  N   N8        1.0  0.60450  0.24228  0.32322  1.0000
  N   N9        1.0  0.34939  0.86349  0.71012  1.0000
  N   N10       1.0  0.65061  0.13652  0.28987  1.0000
  N   N11       1.0  0.90195  0.73313  0.88614  1.0000
  N   N12       1.0  0.09805  0.26687  0.11386  1.0000
