data_image0
_chemical_formula_structural       Zn2H10C18N2O10F12
_chemical_formula_sum              "Zn2 H10 C18 N2 O10 F12"
_cell_length_a       7.17751
_cell_length_b       8.53194
_cell_length_c       11.1324
_cell_angle_alpha    107.043
_cell_angle_beta     89.9995
_cell_angle_gamma    89.9993

_space_group_name_H-M_alt    "P 1"
_space_group_IT_number       1

loop_
  _space_group_symop_operation_xyz
  'x, y, z'

loop_
  _atom_site_type_symbol
  _atom_site_label
  _atom_site_symmetry_multiplicity
  _atom_site_fract_x
  _atom_site_fract_y
  _atom_site_fract_z
  _atom_site_occupancy
  Zn  Zn1       1.0  1.00000  0.50000  0.50000  1.0000
  Zn  Zn2       1.0  0.50000  0.50000  0.50000  1.0000
  H   H1        1.0  0.75000  0.12028  0.77461  1.0000
  H   H2        1.0  0.25001  0.87972  0.22539  1.0000
  H   H3        1.0  0.74999  0.90059  0.59197  1.0000
  H   H4        1.0  0.25000  0.09941  0.40803  1.0000
  H   H5        1.0  0.75001  0.57625  0.82465  1.0000
  H   H6        1.0  0.25001  0.42375  0.17535  1.0000
  H   H7        1.0  0.75001  0.82512  0.01376  1.0000
  H   H8        1.0  0.25001  0.17489  0.98624  1.0000
  H   H9        1.0  0.75001  0.10657  0.98108  1.0000
  H   H10       1.0  0.25001  0.89343  0.01892  1.0000
  C   C1        1.0  0.74999  0.87679  0.68231  1.0000
  C   C2        1.0  0.24999  0.12322  0.31769  1.0000
  C   C3        1.0  0.75000  0.71573  0.69203  1.0000
  C   C4        1.0  0.25000  0.28428  0.30797  1.0000
  C   C5        1.0  0.75001  0.69934  0.81457  1.0000
  C   C6        1.0  0.25001  0.30066  0.18543  1.0000
  C   C7        1.0  0.75001  0.83754  0.91941  1.0000
  C   C8        1.0  0.25001  0.16247  0.08059  1.0000
  C   C9        1.0  0.75000  0.99313  0.90462  1.0000
  C   C10       1.0  0.25001  0.00687  0.09538  1.0000
  C   C11       1.0  0.74998  0.52718  0.27973  1.0000
  C   C12       1.0  0.25000  0.47282  0.72027  1.0000
  C   C13       1.0  0.74999  0.54307  0.14339  1.0000
  C   C14       1.0  0.25000  0.45692  0.85662  1.0000
  C   C15       1.0  0.74998  0.19107  0.42646  1.0000
  C   C16       1.0  0.25000  0.80893  0.57354  1.0000
  C   C17       1.0  0.75000  0.00631  0.34839  1.0000
  C   C18       1.0  0.24999  0.99369  0.65161  1.0000
  N   N1        1.0  0.75000  0.00609  0.78616  1.0000
  N   N2        1.0  0.25000  0.99391  0.21383  1.0000
  O   O1        1.0  0.74999  0.58985  0.58976  1.0000
  O   O2        1.0  0.24999  0.41015  0.41024  1.0000
  O   O3        1.0  0.90982  0.51918  0.32347  1.0000
  O   O4        1.0  0.40980  0.48082  0.67653  1.0000
  O   O5        1.0  0.09018  0.48082  0.67654  1.0000
  O   O6        1.0  0.59020  0.51917  0.32347  1.0000
  O   O7        1.0  0.90940  0.25299  0.44983  1.0000
  O   O8        1.0  0.40938  0.74701  0.55017  1.0000
  O   O9        1.0  0.09060  0.74700  0.55017  1.0000
  O   O10       1.0  0.59061  0.25298  0.44983  1.0000
  F   F1        1.0  0.90254  0.62292  0.11820  1.0000
  F   F2        1.0  0.40257  0.37710  0.88180  1.0000
  F   F3        1.0  0.09745  0.37709  0.88181  1.0000
  F   F4        1.0  0.59742  0.62289  0.11820  1.0000
  F   F5        1.0  0.75002  0.38942  0.05753  1.0000
  F   F6        1.0  0.25000  0.61058  0.94247  1.0000
  F   F7        1.0  0.75000  0.99666  0.22260  1.0000
  F   F8        1.0  0.24999  0.00334  0.77740  1.0000
  F   F9        1.0  0.90221  0.92304  0.36922  1.0000
  F   F10       1.0  0.40218  0.07696  0.63077  1.0000
  F   F11       1.0  0.09779  0.07696  0.63077  1.0000
  F   F12       1.0  0.59781  0.92304  0.36923  1.0000
