data_image0
_chemical_formula_structural       Na2P4H22C24O12
_chemical_formula_sum              "Na2 P4 H22 C24 O12"
_cell_length_a       5.65703
_cell_length_b       7.83986
_cell_length_c       14.2142
_cell_angle_alpha    87.8985
_cell_angle_beta     87.6218
_cell_angle_gamma    82.9496

_space_group_name_H-M_alt    "P 1"
_space_group_IT_number       1

loop_
  _space_group_symop_operation_xyz
  'x, y, z'

loop_
  _atom_site_type_symbol
  _atom_site_label
  _atom_site_symmetry_multiplicity
  _atom_site_fract_x
  _atom_site_fract_y
  _atom_site_fract_z
  _atom_site_occupancy
  Na  Na1       1.0  0.30031  0.68722  0.99304  1.0000
  Na  Na2       1.0  0.69968  0.31277  0.00696  1.0000
  P   P1        1.0  0.77561  0.89230  0.86712  1.0000
  P   P2        1.0  0.22438  0.10769  0.13288  1.0000
  P   P3        1.0  0.77616  0.65338  0.14313  1.0000
  P   P4        1.0  0.22385  0.34661  0.85687  1.0000
  H   H1        1.0  0.39195  0.99856  0.87687  1.0000
  H   H2        1.0  0.60805  0.00143  0.12312  1.0000
  H   H3        1.0  0.49640  0.05905  0.70882  1.0000
  H   H4        1.0  0.50359  0.94098  0.29118  1.0000
  H   H5        1.0  0.99090  0.10195  0.89201  1.0000
  H   H6        1.0  0.00910  0.89803  0.10800  1.0000
  H   H7        1.0  0.60469  0.11398  0.54442  1.0000
  H   H8        1.0  0.39531  0.88603  0.45558  1.0000
  H   H9        1.0  0.06864  0.44850  0.11510  1.0000
  H   H10       1.0  0.93137  0.55149  0.88490  1.0000
  H   H11       1.0  0.30217  0.83280  0.58530  1.0000
  H   H12       1.0  0.69781  0.16719  0.41470  1.0000
  H   H13       1.0  0.19234  0.77939  0.75003  1.0000
  H   H14       1.0  0.80763  0.22059  0.24997  1.0000
  H   H15       1.0  0.39246  0.47805  0.22258  1.0000
  H   H16       1.0  0.60754  0.52196  0.77742  1.0000
  H   H17       1.0  0.26296  0.40418  0.38383  1.0000
  H   H18       1.0  0.73704  0.59582  0.61617  1.0000
  H   H19       1.0  0.84374  0.64581  0.48900  1.0000
  H   H20       1.0  0.15625  0.35421  0.51100  1.0000
  H   H21       1.0  0.97219  0.71497  0.32759  1.0000
  H   H22       1.0  0.02783  0.28502  0.67241  1.0000
  C   C1        1.0  0.83750  0.91656  0.74234  1.0000
  C   C2        1.0  0.16249  0.08344  0.25766  1.0000
  C   C3        1.0  0.67395  0.00929  0.68226  1.0000
  C   C4        1.0  0.32606  0.99073  0.31774  1.0000
  C   C5        1.0  0.73691  0.04015  0.58798  1.0000
  C   C6        1.0  0.26308  0.95986  0.41202  1.0000
  C   C7        1.0  0.96518  0.98096  0.54987  1.0000
  C   C8        1.0  0.03482  0.01905  0.45013  1.0000
  C   C9        1.0  0.12477  0.88443  0.61067  1.0000
  C   C10       1.0  0.87524  0.11556  0.38933  1.0000
  C   C11       1.0  0.06306  0.85287  0.70493  1.0000
  C   C12       1.0  0.93691  0.14713  0.29507  1.0000
  C   C13       1.0  0.69131  0.60004  0.26334  1.0000
  C   C14       1.0  0.30870  0.39996  0.73666  1.0000
  C   C15       1.0  0.49209  0.51242  0.28150  1.0000
  C   C16       1.0  0.50791  0.48759  0.71851  1.0000
  C   C17       1.0  0.41862  0.47275  0.37347  1.0000
  C   C18       1.0  0.58139  0.52725  0.62653  1.0000
  C   C19       1.0  0.54046  0.51997  0.45101  1.0000
  C   C20       1.0  0.45954  0.48004  0.54899  1.0000
  C   C21       1.0  0.74216  0.60703  0.43168  1.0000
  C   C22       1.0  0.25784  0.39298  0.56832  1.0000
  C   C23       1.0  0.81635  0.64664  0.33976  1.0000
  C   C24       1.0  0.18365  0.35336  0.66023  1.0000
  O   O1        1.0  0.92878  0.73829  0.90699  1.0000
  O   O2        1.0  0.07121  0.26170  0.09301  1.0000
  O   O3        1.0  0.50167  0.88092  0.88496  1.0000
  O   O4        1.0  0.49833  0.11907  0.11504  1.0000
  O   O5        1.0  0.81989  0.06508  0.91183  1.0000
  O   O6        1.0  0.18011  0.93490  0.08818  1.0000
  O   O7        1.0  0.04950  0.57838  0.12716  1.0000
  O   O8        1.0  0.95051  0.42161  0.87284  1.0000
  O   O9        1.0  0.61736  0.57724  0.07856  1.0000
  O   O10       1.0  0.38265  0.42275  0.92144  1.0000
  O   O11       1.0  0.78318  0.85027  0.13581  1.0000
  O   O12       1.0  0.21682  0.14973  0.86419  1.0000
