data_image0
_chemical_formula_structural       K2P4H22C24O12
_chemical_formula_sum              "K2 P4 H22 C24 O12"
_cell_length_a       5.82033
_cell_length_b       7.66226
_cell_length_c       14.9222
_cell_angle_alpha    79.0762
_cell_angle_beta     91.0322
_cell_angle_gamma    86.0627

_space_group_name_H-M_alt    "P 1"
_space_group_IT_number       1

loop_
  _space_group_symop_operation_xyz
  'x, y, z'

loop_
  _atom_site_type_symbol
  _atom_site_label
  _atom_site_symmetry_multiplicity
  _atom_site_fract_x
  _atom_site_fract_y
  _atom_site_fract_z
  _atom_site_occupancy
  K   K1        1.0  0.26971  0.21250  0.00007  1.0000
  K   K2        1.0  0.73027  0.78752  0.99994  1.0000
  P   P1        1.0  0.72772  0.33952  0.84581  1.0000
  P   P2        1.0  0.27229  0.66048  0.15419  1.0000
  P   P3        1.0  0.18336  0.82596  0.84007  1.0000
  P   P4        1.0  0.81664  0.17404  0.15994  1.0000
  H   H1        1.0  0.93765  0.56356  0.87092  1.0000
  H   H2        1.0  0.06234  0.43643  0.12908  1.0000
  H   H3        1.0  0.49846  0.55068  0.67822  1.0000
  H   H4        1.0  0.50155  0.44933  0.32177  1.0000
  H   H5        1.0  0.93627  0.07358  0.87969  1.0000
  H   H6        1.0  0.06374  0.92642  0.12031  1.0000
  H   H7        1.0  0.62708  0.62732  0.52147  1.0000
  H   H8        1.0  0.37294  0.37270  0.47853  1.0000
  H   H9        1.0  0.42081  0.57726  0.87633  1.0000
  H   H10       1.0  0.57920  0.42274  0.12367  1.0000
  H   H11       1.0  0.26856  0.31076  0.60114  1.0000
  H   H12       1.0  0.73145  0.68926  0.39886  1.0000
  H   H13       1.0  0.14268  0.24093  0.75714  1.0000
  H   H14       1.0  0.85733  0.75907  0.24286  1.0000
  H   H15       1.0  0.01023  0.77137  0.66112  1.0000
  H   H16       1.0  0.98976  0.22863  0.33888  1.0000
  H   H17       1.0  0.15640  0.84960  0.50691  1.0000
  H   H18       1.0  0.84358  0.15039  0.49309  1.0000
  H   H19       1.0  0.72674  0.08948  0.61458  1.0000
  H   H20       1.0  0.27327  0.91049  0.38543  1.0000
  H   H21       1.0  0.57997  0.00985  0.76738  1.0000
  H   H22       1.0  0.42003  0.99014  0.23262  1.0000
  C   C1        1.0  0.80971  0.38869  0.72879  1.0000
  C   C2        1.0  0.19030  0.61132  0.27120  1.0000
  C   C3        1.0  0.66719  0.49779  0.66107  1.0000
  C   C4        1.0  0.33281  0.50221  0.33892  1.0000
  C   C5        1.0  0.74182  0.54075  0.57192  1.0000
  C   C6        1.0  0.25819  0.45927  0.42808  1.0000
  C   C7        1.0  0.95968  0.47634  0.54727  1.0000
  C   C8        1.0  0.04034  0.52368  0.45273  1.0000
  C   C9        1.0  0.09940  0.36559  0.61616  1.0000
  C   C10       1.0  0.90061  0.63442  0.38383  1.0000
  C   C11       1.0  0.02730  0.32369  0.70534  1.0000
  C   C12       1.0  0.97271  0.67632  0.29466  1.0000
  C   C13       1.0  0.28355  0.88550  0.72537  1.0000
  C   C14       1.0  0.71644  0.11449  0.27463  1.0000
  C   C15       1.0  0.16703  0.84174  0.65058  1.0000
  C   C16       1.0  0.83295  0.15826  0.34943  1.0000
  C   C17       1.0  0.25164  0.88691  0.56300  1.0000
  C   C18       1.0  0.74835  0.11308  0.43701  1.0000
  C   C19       1.0  0.45466  0.97676  0.54663  1.0000
  C   C20       1.0  0.54532  0.02323  0.45337  1.0000
  C   C21       1.0  0.56914  0.02004  0.62274  1.0000
  C   C22       1.0  0.43085  0.97995  0.37727  1.0000
  C   C23       1.0  0.48593  0.97512  0.71023  1.0000
  C   C24       1.0  0.51407  0.02487  0.28977  1.0000
  O   O1        1.0  0.90575  0.42444  0.90155  1.0000
  O   O2        1.0  0.09425  0.57555  0.09845  1.0000
  O   O3        1.0  0.47855  0.40145  0.85522  1.0000
  O   O4        1.0  0.52145  0.59855  0.14477  1.0000
  O   O5        1.0  0.76293  0.13287  0.88191  1.0000
  O   O6        1.0  0.23707  0.86713  0.11807  1.0000
  O   O7        1.0  0.15763  0.99060  0.88439  1.0000
  O   O8        1.0  0.84237  0.00939  0.11561  1.0000
  O   O9        1.0  0.38250  0.69908  0.89685  1.0000
  O   O10       1.0  0.61750  0.30092  0.10315  1.0000
  O   O11       1.0  0.95957  0.73387  0.83745  1.0000
  O   O12       1.0  0.04043  0.26612  0.16256  1.0000
