data_image0
_chemical_formula_structural       Rb2P4H22C24O12
_chemical_formula_sum              "Rb2 P4 H22 C24 O12"
_cell_length_a       5.82581
_cell_length_b       7.69307
_cell_length_c       15.2182
_cell_angle_alpha    101.449
_cell_angle_beta     92.8899
_cell_angle_gamma    94.062

_space_group_name_H-M_alt    "P 1"
_space_group_IT_number       1

loop_
  _space_group_symop_operation_xyz
  'x, y, z'

loop_
  _atom_site_type_symbol
  _atom_site_label
  _atom_site_symmetry_multiplicity
  _atom_site_fract_x
  _atom_site_fract_y
  _atom_site_fract_z
  _atom_site_occupancy
  Rb  Rb1       1.0  0.78303  0.77930  0.51086  1.0000
  Rb  Rb2       1.0  0.21698  0.22071  0.48914  1.0000
  P   P1        1.0  0.25499  0.69031  0.33939  1.0000
  P   P2        1.0  0.74501  0.30969  0.66060  1.0000
  P   P3        1.0  0.29671  0.78520  0.66952  1.0000
  P   P4        1.0  0.70330  0.21479  0.33048  1.0000
  H   H1        1.0  0.66347  0.77944  0.25026  1.0000
  H   H2        1.0  0.33652  0.22056  0.74974  1.0000
  H   H3        1.0  0.94535  0.50481  0.35680  1.0000
  H   H4        1.0  0.05465  0.49519  0.64320  1.0000
  H   H5        1.0  0.77644  0.69632  0.09760  1.0000
  H   H6        1.0  0.22355  0.30368  0.90240  1.0000
  H   H7        1.0  0.57149  0.55632  0.63943  1.0000
  H   H8        1.0  0.42852  0.44368  0.36057  1.0000
  H   H9        1.0  0.12776  0.37787  0.02267  1.0000
  H   H10       1.0  0.87223  0.62214  0.97732  1.0000
  H   H11       1.0  0.45859  0.02012  0.62524  1.0000
  H   H12       1.0  0.54141  0.97988  0.37477  1.0000
  H   H13       1.0  0.01216  0.46719  0.17572  1.0000
  H   H14       1.0  0.98783  0.53281  0.82427  1.0000
  H   H15       1.0  0.90584  0.98127  0.73439  1.0000
  H   H16       1.0  0.09416  0.01874  0.26562  1.0000
  H   H17       1.0  0.76937  0.07711  0.88282  1.0000
  H   H18       1.0  0.23065  0.92290  0.11719  1.0000
  H   H19       1.0  0.34331  0.85218  0.99901  1.0000
  H   H20       1.0  0.65670  0.14782  0.00099  1.0000
  H   H21       1.0  0.48225  0.75981  0.84902  1.0000
  H   H22       1.0  0.51773  0.24017  0.15098  1.0000
  C   C1        1.0  0.32805  0.63076  0.22448  1.0000
  C   C2        1.0  0.67193  0.36924  0.77552  1.0000
  C   C3        1.0  0.54349  0.69306  0.20046  1.0000
  C   C4        1.0  0.45649  0.30694  0.79954  1.0000
  C   C5        1.0  0.60852  0.64335  0.11302  1.0000
  C   C6        1.0  0.39148  0.35665  0.88698  1.0000
  C   C7        1.0  0.46342  0.52792  0.04628  1.0000
  C   C8        1.0  0.53657  0.47208  0.95372  1.0000
  C   C9        1.0  0.24728  0.46715  0.07129  1.0000
  C   C10       1.0  0.75272  0.53285  0.92871  1.0000
  C   C11       1.0  0.18016  0.51755  0.15865  1.0000
  C   C12       1.0  0.81983  0.48246  0.84134  1.0000
  C   C13       1.0  0.20527  0.86347  0.78077  1.0000
  C   C14       1.0  0.79471  0.13652  0.21923  1.0000
  C   C15       1.0  0.00392  0.95341  0.79222  1.0000
  C   C16       1.0  0.99608  0.04659  0.20779  1.0000
  C   C17       1.0  0.92575  0.00719  0.87741  1.0000
  C   C18       1.0  0.07426  0.99281  0.12258  1.0000
  C   C19       1.0  0.04313  0.97234  0.95464  1.0000
  C   C20       1.0  0.95688  0.02767  0.04537  1.0000
  C   C21       1.0  0.24521  0.88239  0.94193  1.0000
  C   C22       1.0  0.75480  0.11760  0.05806  1.0000
  C   C23       1.0  0.32545  0.82914  0.85678  1.0000
  C   C24       1.0  0.67454  0.17086  0.14322  1.0000
  O   O1        1.0  0.40060  0.58015  0.39465  1.0000
  O   O2        1.0  0.59941  0.41986  0.60535  1.0000
  O   O3        1.0  0.31090  0.88744  0.37686  1.0000
  O   O4        1.0  0.68909  0.11257  0.62313  1.0000
  O   O5        1.0  0.99254  0.63769  0.34249  1.0000
  O   O6        1.0  0.00747  0.36231  0.65751  1.0000
  O   O7        1.0  0.53905  0.72384  0.67619  1.0000
  O   O8        1.0  0.46095  0.27615  0.32382  1.0000
  O   O9        1.0  0.11216  0.64651  0.61709  1.0000
  O   O10       1.0  0.88784  0.35348  0.38290  1.0000
  O   O11       1.0  0.29786  0.94781  0.61919  1.0000
  O   O12       1.0  0.70215  0.05219  0.38081  1.0000
