data_image0
_chemical_formula_structural       Na4P4H20C24O12
_chemical_formula_sum              "Na4 P4 H20 C24 O12"
_cell_length_a       6.33055
_cell_length_b       7.45712
_cell_length_c       14.5435
_cell_angle_alpha    104.853
_cell_angle_beta     99.6513
_cell_angle_gamma    89.9583

_space_group_name_H-M_alt    "P 1"
_space_group_IT_number       1

loop_
  _space_group_symop_operation_xyz
  'x, y, z'

loop_
  _atom_site_type_symbol
  _atom_site_label
  _atom_site_symmetry_multiplicity
  _atom_site_fract_x
  _atom_site_fract_y
  _atom_site_fract_z
  _atom_site_occupancy
  Na  Na1       1.0  0.24973  0.10876  0.00003  1.0000
  Na  Na2       1.0  0.75026  0.89124  0.99997  1.0000
  Na  Na3       1.0  0.74998  0.45742  0.99978  1.0000
  Na  Na4       1.0  0.25001  0.54258  0.00022  1.0000
  P   P1        1.0  0.00288  0.28060  0.14987  1.0000
  P   P2        1.0  0.49673  0.13091  0.85028  1.0000
  P   P3        1.0  0.99712  0.71941  0.85014  1.0000
  P   P4        1.0  0.50326  0.86909  0.14972  1.0000
  H   H1        1.0  0.64604  0.58169  0.37550  1.0000
  H   H2        1.0  0.85390  0.20692  0.62431  1.0000
  H   H3        1.0  0.35397  0.41831  0.62450  1.0000
  H   H4        1.0  0.14609  0.79308  0.37568  1.0000
  H   H5        1.0  0.41491  0.48993  0.21817  1.0000
  H   H6        1.0  0.08478  0.27266  0.78172  1.0000
  H   H7        1.0  0.58509  0.51007  0.78183  1.0000
  H   H8        1.0  0.91521  0.72734  0.21828  1.0000
  H   H9        1.0  0.16694  0.35635  0.50057  1.0000
  H   H10       1.0  0.33326  0.85560  0.49968  1.0000
  H   H11       1.0  0.83308  0.64365  0.49943  1.0000
  H   H12       1.0  0.66674  0.14440  0.50032  1.0000
  H   H13       1.0  0.93788  0.26373  0.34223  1.0000
  H   H14       1.0  0.56200  0.92143  0.65810  1.0000
  H   H15       1.0  0.06213  0.73627  0.65777  1.0000
  H   H16       1.0  0.43800  0.07857  0.34190  1.0000
  H   H17       1.0  0.66126  0.21748  0.14921  1.0000
  H   H18       1.0  0.83849  0.06854  0.85086  1.0000
  H   H19       1.0  0.33874  0.78252  0.85079  1.0000
  H   H20       1.0  0.16150  0.93146  0.14914  1.0000
  C   C1        1.0  0.16076  0.36791  0.26810  1.0000
  C   C2        1.0  0.33898  0.10016  0.73202  1.0000
  C   C3        1.0  0.83924  0.63209  0.73190  1.0000
  C   C4        1.0  0.66101  0.89984  0.26798  1.0000
  C   C5        1.0  0.36024  0.45999  0.27996  1.0000
  C   C6        1.0  0.13955  0.18067  0.72002  1.0000
  C   C7        1.0  0.63977  0.54001  0.72005  1.0000
  C   C8        1.0  0.86045  0.81933  0.27998  1.0000
  C   C9        1.0  0.09338  0.33366  0.34943  1.0000
  C   C10       1.0  0.40650  0.98432  0.65078  1.0000
  C   C11       1.0  0.90663  0.66635  0.65057  1.0000
  C   C12       1.0  0.59349  0.01568  0.34922  1.0000
  C   C13       1.0  0.22476  0.38665  0.43957  1.0000
  C   C14       1.0  0.27527  0.94710  0.56059  1.0000
  C   C15       1.0  0.77525  0.61335  0.56044  1.0000
  C   C16       1.0  0.72472  0.05289  0.43941  1.0000
  C   C17       1.0  0.49161  0.51213  0.37025  1.0000
  C   C18       1.0  0.00828  0.14237  0.62967  1.0000
  C   C19       1.0  0.50840  0.48787  0.62975  1.0000
  C   C20       1.0  0.99172  0.85763  0.37033  1.0000
  C   C21       1.0  0.42870  0.47467  0.45215  1.0000
  C   C22       1.0  0.07125  0.02265  0.54788  1.0000
  C   C23       1.0  0.57131  0.52534  0.54786  1.0000
  C   C24       1.0  0.92874  0.97734  0.45212  1.0000
  O   O1        1.0  0.07816  0.37449  0.07904  1.0000
  O   O2        1.0  0.42124  0.29547  0.92117  1.0000
  O   O3        1.0  0.92183  0.62551  0.92096  1.0000
  O   O4        1.0  0.57876  0.70454  0.07883  1.0000
  O   O5        1.0  0.01134  0.06828  0.11865  1.0000
  O   O6        1.0  0.48873  0.94966  0.88138  1.0000
  O   O7        1.0  0.98866  0.93173  0.88135  1.0000
  O   O8        1.0  0.51126  0.05034  0.11862  1.0000
  O   O9        1.0  0.76139  0.33238  0.15700  1.0000
  O   O10       1.0  0.73822  0.17576  0.84325  1.0000
  O   O11       1.0  0.23861  0.66762  0.84300  1.0000
  O   O12       1.0  0.26178  0.82424  0.15675  1.0000
