data_image0
_chemical_formula_structural       CuH24C24N12Cl2
_chemical_formula_sum              "Cu1 H24 C24 N12 Cl2"
_cell_length_a       7.54716
_cell_length_b       8.32468
_cell_length_c       11.1004
_cell_angle_alpha    77.8797
_cell_angle_beta     88.6073
_cell_angle_gamma    72.1452

_space_group_name_H-M_alt    "P 1"
_space_group_IT_number       1

loop_
  _space_group_symop_operation_xyz
  'x, y, z'

loop_
  _atom_site_type_symbol
  _atom_site_label
  _atom_site_symmetry_multiplicity
  _atom_site_fract_x
  _atom_site_fract_y
  _atom_site_fract_z
  _atom_site_occupancy
  Cu  Cu1       1.0  1.00000  0.00000  1.00000  1.0000
  H   H1        1.0  0.21494  0.48305  0.39993  1.0000
  H   H2        1.0  0.78506  0.51695  0.60007  1.0000
  H   H3        1.0  0.63684  0.10109  0.64932  1.0000
  H   H4        1.0  0.36316  0.89891  0.35068  1.0000
  H   H5        1.0  0.80214  0.99097  0.47185  1.0000
  H   H6        1.0  0.19786  0.00903  0.52815  1.0000
  H   H7        1.0  0.66977  0.12620  0.25782  1.0000
  H   H8        1.0  0.33023  0.87380  0.74218  1.0000
  H   H9        1.0  0.29145  0.53226  0.17040  1.0000
  H   H10       1.0  0.70855  0.46774  0.82959  1.0000
  H   H11       1.0  0.45509  0.36121  0.11681  1.0000
  H   H12       1.0  0.54492  0.63878  0.88319  1.0000
  H   H13       1.0  0.42206  0.36941  0.71328  1.0000
  H   H14       1.0  0.57795  0.63058  0.28672  1.0000
  H   H15       1.0  0.23312  0.50820  0.61017  1.0000
  H   H16       1.0  0.76689  0.49181  0.38984  1.0000
  H   H17       1.0  0.78073  0.34760  0.11010  1.0000
  H   H18       1.0  0.21927  0.65240  0.88989  1.0000
  H   H19       1.0  0.35336  0.09484  0.09408  1.0000
  H   H20       1.0  0.64664  0.90514  0.90593  1.0000
  H   H21       1.0  0.84119  0.15898  0.72161  1.0000
  H   H22       1.0  0.15880  0.84102  0.27838  1.0000
  H   H23       1.0  0.33697  0.17048  0.88245  1.0000
  H   H24       1.0  0.66302  0.82952  0.11755  1.0000
  C   C1        1.0  0.43265  0.31178  0.31488  1.0000
  C   C2        1.0  0.56736  0.68822  0.68512  1.0000
  C   C3        1.0  0.34405  0.37547  0.41507  1.0000
  C   C4        1.0  0.65595  0.62454  0.58493  1.0000
  C   C5        1.0  0.41884  0.30261  0.53505  1.0000
  C   C6        1.0  0.58116  0.69739  0.46495  1.0000
  C   C7        1.0  0.58290  0.16275  0.55507  1.0000
  C   C8        1.0  0.41710  0.83726  0.44493  1.0000
  C   C9        1.0  0.67443  0.10010  0.45592  1.0000
  C   C10       1.0  0.32557  0.89990  0.54408  1.0000
  C   C11       1.0  0.59935  0.17478  0.33595  1.0000
  C   C12       1.0  0.40065  0.82522  0.66405  1.0000
  C   C13       1.0  0.34968  0.39133  0.18571  1.0000
  C   C14       1.0  0.65032  0.60867  0.81429  1.0000
  C   C15       1.0  0.32177  0.37407  0.64157  1.0000
  C   C16       1.0  0.67823  0.62593  0.35842  1.0000
  C   C17       1.0  0.93072  0.31564  0.12091  1.0000
  C   C18       1.0  0.06927  0.68436  0.87909  1.0000
  C   C19       1.0  0.22095  0.18379  0.11123  1.0000
  C   C20       1.0  0.77905  0.81620  0.88878  1.0000
  C   C21       1.0  0.97195  0.18278  0.73359  1.0000
  C   C22       1.0  0.02805  0.81722  0.26640  1.0000
  C   C23       1.0  0.22012  0.18664  0.82026  1.0000
  C   C24       1.0  0.77988  0.81336  0.17975  1.0000
  N   N1        1.0  0.20031  0.32639  0.15500  1.0000
  N   N2        1.0  0.79969  0.67360  0.84501  1.0000
  N   N3        1.0  0.01610  0.41224  0.16272  1.0000
  N   N4        1.0  0.98390  0.58777  0.83728  1.0000
  N   N5        1.0  0.05180  0.17313  0.08856  1.0000
  N   N6        1.0  0.94819  0.82687  0.91144  1.0000
  N   N7        1.0  0.20254  0.27533  0.70325  1.0000
  N   N8        1.0  0.79746  0.72467  0.29675  1.0000
  N   N9        1.0  0.04549  0.27450  0.64595  1.0000
  N   N10       1.0  0.95452  0.72550  0.35405  1.0000
  N   N11       1.0  0.07471  0.12580  0.84215  1.0000
  N   N12       1.0  0.92528  0.87420  0.15785  1.0000
  Cl  Cl1       1.0  0.37937  0.79753  0.04986  1.0000
  Cl  Cl2       1.0  0.62062  0.20247  0.95014  1.0000
