data_image0
_chemical_formula_structural       H32Rh4C34S4N4O16
_chemical_formula_sum              "H32 Rh4 C34 S4 N4 O16"
_cell_length_a       8.1429
_cell_length_b       13.6165
_cell_length_c       14.1325
_cell_angle_alpha    91.5067
_cell_angle_beta     98.3596
_cell_angle_gamma    90.2752

_space_group_name_H-M_alt    "P 1"
_space_group_IT_number       1

loop_
  _space_group_symop_operation_xyz
  'x, y, z'

loop_
  _atom_site_type_symbol
  _atom_site_label
  _atom_site_symmetry_multiplicity
  _atom_site_fract_x
  _atom_site_fract_y
  _atom_site_fract_z
  _atom_site_occupancy
  H   H1        1.0  0.50352  0.51724  0.88906  1.0000
  H   H2        1.0  0.49737  0.48056  0.11152  1.0000
  H   H3        1.0  0.45842  0.64368  0.89596  1.0000
  H   H4        1.0  0.54235  0.35412  0.10301  1.0000
  H   H5        1.0  0.37597  0.57177  0.79106  1.0000
  H   H6        1.0  0.62928  0.42540  0.20759  1.0000
  H   H7        1.0  0.86964  0.83104  0.97257  1.0000
  H   H8        1.0  0.12360  0.16715  0.02233  1.0000
  H   H9        1.0  0.68496  0.77671  0.99999  1.0000
  H   H10       1.0  0.30805  0.22114  0.99399  1.0000
  H   H11       1.0  0.72004  0.77820  0.87813  1.0000
  H   H12       1.0  0.27430  0.22019  0.11601  1.0000
  H   H13       1.0  0.45602  0.16625  0.65826  1.0000
  H   H14       1.0  0.54280  0.83402  0.34493  1.0000
  H   H15       1.0  0.46158  0.20260  0.53989  1.0000
  H   H16       1.0  0.53443  0.79892  0.46349  1.0000
  H   H17       1.0  0.55457  0.08918  0.57795  1.0000
  H   H18       1.0  0.44130  0.91172  0.42325  1.0000
  H   H19       1.0  0.07177  0.12430  0.20782  1.0000
  H   H20       1.0  0.92025  0.88176  0.79618  1.0000
  H   H21       1.0  0.87439  0.06730  0.18094  1.0000
  H   H22       1.0  0.12034  0.93573  0.82210  1.0000
  H   H23       1.0  0.05803  0.99484  0.18017  1.0000
  H   H24       1.0  0.93984  0.01093  0.82356  1.0000
  H   H25       1.0  0.41868  0.47030  0.31939  1.0000
  H   H26       1.0  0.55354  0.53290  0.67045  1.0000
  H   H27       1.0  0.36905  0.64597  0.57263  1.0000
  H   H28       1.0  0.60172  0.35654  0.41728  1.0000
  H   H29       1.0  0.02274  0.66354  0.76449  1.0000
  H   H30       1.0  0.05601  0.34746  0.24580  1.0000
  H   H31       1.0  0.85439  0.75750  0.62376  1.0000
  H   H32       1.0  0.21156  0.24132  0.38216  1.0000
  Rh  Rh1       1.0  0.07132  0.53012  0.07258  1.0000
  Rh  Rh2       1.0  0.92351  0.46856  0.92143  1.0000
  Rh  Rh3       1.0  0.06615  0.92426  0.49265  1.0000
  Rh  Rh4       1.0  0.92790  0.07900  0.51045  1.0000
  C   C1        1.0  0.25709  0.54794  0.91526  1.0000
  C   C2        1.0  0.74226  0.45042  0.08199  1.0000
  C   C3        1.0  0.40677  0.57209  0.86910  1.0000
  C   C4        1.0  0.59465  0.42562  0.12977  1.0000
  C   C5        1.0  0.86431  0.67317  0.96593  1.0000
  C   C6        1.0  0.12956  0.32512  0.02827  1.0000
  C   C7        1.0  0.77988  0.77116  0.95218  1.0000
  C   C8        1.0  0.21365  0.22702  0.04210  1.0000
  C   C9        1.0  0.28763  0.08791  0.55267  1.0000
  C   C10       1.0  0.70822  0.91359  0.45072  1.0000
  C   C11       1.0  0.45112  0.13851  0.58420  1.0000
  C   C12       1.0  0.54547  0.86250  0.41861  1.0000
  C   C13       1.0  0.00302  0.03685  0.32006  1.0000
  C   C14       1.0  0.99120  0.96739  0.68334  1.0000
  C   C15       1.0  0.00251  0.05623  0.21538  1.0000
  C   C16       1.0  0.99248  0.94859  0.78819  1.0000
  C   C17       1.0  0.22754  0.61415  0.28357  1.0000
  C   C18       1.0  0.75560  0.39276  0.70590  1.0000
  C   C19       1.0  0.27315  0.63402  0.38111  1.0000
  C   C20       1.0  0.70229  0.37105  0.60903  1.0000
  C   C21       1.0  0.21713  0.71940  0.42257  1.0000
  C   C22       1.0  0.76571  0.28664  0.57000  1.0000
  C   C23       1.0  0.38012  0.56697  0.43850  1.0000
  C   C24       1.0  0.59080  0.43562  0.55158  1.0000
  C   C25       1.0  0.44801  0.48379  0.39642  1.0000
  C   C26       1.0  0.52288  0.51897  0.59351  1.0000
  C   C27       1.0  0.42067  0.58271  0.53858  1.0000
  C   C28       1.0  0.55027  0.41992  0.45134  1.0000
  C   C29       1.0  0.99688  0.63717  0.69062  1.0000
  C   C30       1.0  0.06242  0.36237  0.32226  1.0000
  C   C31       1.0  0.90667  0.68473  0.61838  1.0000
  C   C32       1.0  0.14521  0.30877  0.39288  1.0000
  C   C33       1.0  0.99448  0.52484  0.54374  1.0000
  C   C34       1.0  0.02810  0.45269  0.47803  1.0000
  S   S1        1.0  0.07330  0.52320  0.66416  1.0000
  S   S2        1.0  0.95933  0.46441  0.35693  1.0000
  S   S3        1.0  0.87363  0.62529  0.50815  1.0000
  S   S4        1.0  0.14065  0.34830  0.50905  1.0000
  N   N1        1.0  0.19520  0.58911  0.20285  1.0000
  N   N2        1.0  0.80155  0.41536  0.78632  1.0000
  N   N3        1.0  0.17822  0.79040  0.46240  1.0000
  N   N4        1.0  0.81772  0.21565  0.53602  1.0000
  O   O1        1.0  0.26696  0.56686  0.00500  1.0000
  O   O2        1.0  0.72881  0.43370  0.99149  1.0000
  O   O3        1.0  0.13031  0.50922  0.86260  1.0000
  O   O4        1.0  0.87023  0.48763  0.13458  1.0000
  O   O5        1.0  0.96427  0.66368  0.04352  1.0000
  O   O6        1.0  0.02885  0.33453  0.95099  1.0000
  O   O7        1.0  0.82744  0.60719  0.89976  1.0000
  O   O8        1.0  0.16797  0.39137  0.09413  1.0000
  O   O9        1.0  0.28773  0.99608  0.53159  1.0000
  O   O10       1.0  0.70741  0.00616  0.46905  1.0000
  O   O11       1.0  0.15750  0.14137  0.54878  1.0000
  O   O12       1.0  0.83802  0.85971  0.45740  1.0000
  O   O13       1.0  0.06709  0.95643  0.35158  1.0000
  O   O14       1.0  0.92410  0.04674  0.65113  1.0000
  O   O15       1.0  0.93912  0.10318  0.36891  1.0000
  O   O16       1.0  0.05748  0.90153  0.63500  1.0000
