data_image0
_chemical_formula_structural       Cs4H28C28S4O12
_chemical_formula_sum              "Cs4 H28 C28 S4 O12"
_cell_length_a       7.22588
_cell_length_b       10.2688
_cell_length_c       13.7062
_cell_angle_alpha    109.674
_cell_angle_beta     90.0002
_cell_angle_gamma    89.9994

_space_group_name_H-M_alt    "P 1"
_space_group_IT_number       1

loop_
  _space_group_symop_operation_xyz
  'x, y, z'

loop_
  _atom_site_type_symbol
  _atom_site_label
  _atom_site_symmetry_multiplicity
  _atom_site_fract_x
  _atom_site_fract_y
  _atom_site_fract_z
  _atom_site_occupancy
  Cs  Cs1       1.0  0.32888  0.16237  0.43087  1.0000
  Cs  Cs2       1.0  0.82887  0.33763  0.56913  1.0000
  Cs  Cs3       1.0  0.67112  0.83763  0.56913  1.0000
  Cs  Cs4       1.0  0.17112  0.66237  0.43087  1.0000
  H   H1        1.0  0.72795  0.09453  0.20161  1.0000
  H   H2        1.0  0.22794  0.40547  0.79839  1.0000
  H   H3        1.0  0.27206  0.90546  0.79839  1.0000
  H   H4        1.0  0.77206  0.59453  0.20161  1.0000
  H   H5        1.0  0.45778  0.06092  0.08373  1.0000
  H   H6        1.0  0.95778  0.43907  0.91627  1.0000
  H   H7        1.0  0.54221  0.93908  0.91627  1.0000
  H   H8        1.0  0.04222  0.56093  0.08373  1.0000
  H   H9        1.0  0.27290  0.72144  0.17640  1.0000
  H   H10       1.0  0.77290  0.77857  0.82361  1.0000
  H   H11       1.0  0.72710  0.27857  0.82361  1.0000
  H   H12       1.0  0.22711  0.22144  0.17639  1.0000
  H   H13       1.0  0.54574  0.75140  0.29143  1.0000
  H   H14       1.0  0.04574  0.74860  0.70857  1.0000
  H   H15       1.0  0.45426  0.24860  0.70857  1.0000
  H   H16       1.0  0.95426  0.25140  0.29143  1.0000
  H   H17       1.0  0.08649  0.78967  0.05886  1.0000
  H   H18       1.0  0.58649  0.71033  0.94115  1.0000
  H   H19       1.0  0.91350  0.21033  0.94115  1.0000
  H   H20       1.0  0.41351  0.28967  0.05886  1.0000
  H   H21       1.0  0.09270  0.96952  0.07927  1.0000
  H   H22       1.0  0.59270  0.53048  0.92073  1.0000
  H   H23       1.0  0.90730  0.03048  0.92073  1.0000
  H   H24       1.0  0.40730  0.46953  0.07927  1.0000
  H   H25       1.0  0.21263  0.85256  0.97295  1.0000
  H   H26       1.0  0.71263  0.64744  0.02705  1.0000
  H   H27       1.0  0.78737  0.14744  0.02705  1.0000
  H   H28       1.0  0.28737  0.35256  0.97295  1.0000
  C   C1        1.0  0.65284  0.92608  0.25420  1.0000
  C   C2        1.0  0.15283  0.57393  0.74580  1.0000
  C   C3        1.0  0.34716  0.07392  0.74580  1.0000
  C   C4        1.0  0.84716  0.42607  0.25420  1.0000
  C   C5        1.0  0.62981  0.01134  0.19426  1.0000
  C   C6        1.0  0.12981  0.48865  0.80573  1.0000
  C   C7        1.0  0.37020  0.98866  0.80573  1.0000
  C   C8        1.0  0.87019  0.51135  0.19426  1.0000
  C   C9        1.0  0.47659  0.99237  0.12892  1.0000
  C   C10       1.0  0.97658  0.50763  0.87108  1.0000
  C   C11       1.0  0.52342  0.00762  0.87108  1.0000
  C   C12       1.0  0.02343  0.49237  0.12892  1.0000
  C   C13       1.0  0.34433  0.88925  0.12185  1.0000
  C   C14       1.0  0.84434  0.61074  0.87815  1.0000
  C   C15       1.0  0.65567  0.11075  0.87815  1.0000
  C   C16       1.0  0.15566  0.38926  0.12185  1.0000
  C   C17       1.0  0.37356  0.80241  0.18056  1.0000
  C   C18       1.0  0.87356  0.69759  0.81944  1.0000
  C   C19       1.0  0.62644  0.19759  0.81944  1.0000
  C   C20       1.0  0.12645  0.30241  0.18056  1.0000
  C   C21       1.0  0.52601  0.81989  0.24626  1.0000
  C   C22       1.0  0.02601  0.68010  0.75374  1.0000
  C   C23       1.0  0.47400  0.18011  0.75374  1.0000
  C   C24       1.0  0.97399  0.31990  0.24626  1.0000
  C   C25       1.0  0.17557  0.87408  0.05473  1.0000
  C   C26       1.0  0.67557  0.62592  0.94528  1.0000
  C   C27       1.0  0.82442  0.12592  0.94527  1.0000
  C   C28       1.0  0.32443  0.37408  0.05473  1.0000
  S   S1        1.0  0.82479  0.96489  0.35353  1.0000
  S   S2        1.0  0.32480  0.53509  0.64647  1.0000
  S   S3        1.0  0.17521  0.03512  0.64646  1.0000
  S   S4        1.0  0.67520  0.46490  0.35353  1.0000
  O   O1        1.0  0.96471  0.05190  0.32790  1.0000
  O   O2        1.0  0.46470  0.44810  0.67210  1.0000
  O   O3        1.0  0.03529  0.94809  0.67210  1.0000
  O   O4        1.0  0.53529  0.55190  0.32790  1.0000
  O   O5        1.0  0.72004  0.04082  0.44892  1.0000
  O   O6        1.0  0.22003  0.45918  0.55108  1.0000
  O   O7        1.0  0.27997  0.95918  0.55108  1.0000
  O   O8        1.0  0.77997  0.54082  0.44892  1.0000
  O   O9        1.0  0.89509  0.83213  0.35638  1.0000
  O   O10       1.0  0.39509  0.66787  0.64362  1.0000
  O   O11       1.0  0.10491  0.16786  0.64362  1.0000
  O   O12       1.0  0.60491  0.33213  0.35638  1.0000
