data_image0
_chemical_formula_structural       Cu4H28C12S4N12Cl8
_chemical_formula_sum              "Cu4 H28 C12 S4 N12 Cl8"
_cell_length_a       8.03448
_cell_length_b       7.66221
_cell_length_c       13.3222
_cell_angle_alpha    90
_cell_angle_beta     90.0006
_cell_angle_gamma    114.165

_space_group_name_H-M_alt    "P 1"
_space_group_IT_number       1

loop_
  _space_group_symop_operation_xyz
  'x, y, z'

loop_
  _atom_site_type_symbol
  _atom_site_label
  _atom_site_symmetry_multiplicity
  _atom_site_fract_x
  _atom_site_fract_y
  _atom_site_fract_z
  _atom_site_occupancy
  Cu  Cu1       1.0  0.14021  0.43073  0.73530  1.0000
  Cu  Cu2       1.0  0.35979  0.56928  0.23530  1.0000
  Cu  Cu3       1.0  0.86002  0.56954  0.26472  1.0000
  Cu  Cu4       1.0  0.63995  0.43047  0.76473  1.0000
  H   H1        1.0  0.70417  0.10613  0.74303  1.0000
  H   H2        1.0  0.79579  0.89404  0.24312  1.0000
  H   H3        1.0  0.29620  0.89411  0.25699  1.0000
  H   H4        1.0  0.20375  0.10595  0.75700  1.0000
  H   H5        1.0  0.82801  0.96049  0.73941  1.0000
  H   H6        1.0  0.67187  0.03958  0.23934  1.0000
  H   H7        1.0  0.17235  0.03974  0.26055  1.0000
  H   H8        1.0  0.32757  0.96028  0.76052  1.0000
  H   H9        1.0  0.54415  0.95744  0.59730  1.0000
  H   H10       1.0  0.95586  0.04244  0.09734  1.0000
  H   H11       1.0  0.45610  0.04292  0.40275  1.0000
  H   H12       1.0  0.04386  0.95708  0.90276  1.0000
  H   H13       1.0  0.65963  0.80068  0.60040  1.0000
  H   H14       1.0  0.84052  0.19935  0.10041  1.0000
  H   H15       1.0  0.34051  0.19956  0.39958  1.0000
  H   H16       1.0  0.15946  0.80044  0.89956  1.0000
  H   H17       1.0  0.25641  0.64619  0.57637  1.0000
  H   H18       1.0  0.24356  0.35381  0.07640  1.0000
  H   H19       1.0  0.74383  0.35407  0.42361  1.0000
  H   H20       1.0  0.75612  0.64589  0.92364  1.0000
  H   H21       1.0  0.36149  0.49550  0.59048  1.0000
  H   H22       1.0  0.13857  0.50459  0.09045  1.0000
  H   H23       1.0  0.63855  0.50464  0.40950  1.0000
  H   H24       1.0  0.86145  0.49536  0.90948  1.0000
  H   H25       1.0  0.14043  0.39625  0.44833  1.0000
  H   H26       1.0  0.35963  0.60373  0.94833  1.0000
  H   H27       1.0  0.85975  0.60407  0.55164  1.0000
  H   H28       1.0  0.64024  0.39586  0.05164  1.0000
  C   C1        1.0  0.97169  0.23670  0.56485  1.0000
  C   C2        1.0  0.52839  0.76328  0.06486  1.0000
  C   C3        1.0  0.02849  0.76352  0.43513  1.0000
  C   C4        1.0  0.47150  0.23645  0.93512  1.0000
  C   C5        1.0  0.78735  0.05698  0.69469  1.0000
  C   C6        1.0  0.71262  0.94307  0.19470  1.0000
  C   C7        1.0  0.21296  0.94325  0.30528  1.0000
  C   C8        1.0  0.28698  0.05677  0.80527  1.0000
  C   C9        1.0  0.67725  0.95013  0.60171  1.0000
  C   C10       1.0  0.82281  0.04986  0.10173  1.0000
  C   C11       1.0  0.32298  0.05012  0.39826  1.0000
  C   C12       1.0  0.17699  0.94988  0.89827  1.0000
  S   S1        1.0  0.80621  0.06708  0.48934  1.0000
  S   S2        1.0  0.69384  0.93294  0.98934  1.0000
  S   S3        1.0  0.19389  0.93312  0.51065  1.0000
  S   S4        1.0  0.30611  0.06685  0.01065  1.0000
  N   N1        1.0  0.95010  0.22006  0.66201  1.0000
  N   N2        1.0  0.54992  0.77991  0.16201  1.0000
  N   N3        1.0  0.05016  0.78020  0.33798  1.0000
  N   N4        1.0  0.44980  0.21980  0.83797  1.0000
  N   N5        1.0  0.23797  0.50830  0.59349  1.0000
  N   N6        1.0  0.26207  0.49173  0.09349  1.0000
  N   N7        1.0  0.76214  0.49194  0.40651  1.0000
  N   N8        1.0  0.73785  0.50804  0.90652  1.0000
  N   N9        1.0  0.11587  0.38044  0.52453  1.0000
  N   N10       1.0  0.38423  0.61949  0.02451  1.0000
  N   N11       1.0  0.88419  0.61989  0.47545  1.0000
  N   N12       1.0  0.61585  0.38002  0.97544  1.0000
  Cl  Cl1       1.0  0.03166  0.33087  0.89083  1.0000
  Cl  Cl2       1.0  0.46837  0.66911  0.39082  1.0000
  Cl  Cl3       1.0  0.96870  0.66937  0.10928  1.0000
  Cl  Cl4       1.0  0.53136  0.33059  0.60927  1.0000
  Cl  Cl5       1.0  0.41343  0.65744  0.79003  1.0000
  Cl  Cl6       1.0  0.08655  0.34260  0.29003  1.0000
  Cl  Cl7       1.0  0.58666  0.34280  0.20999  1.0000
  Cl  Cl8       1.0  0.91329  0.65725  0.71000  1.0000
