data_image0
_chemical_formula_structural       Cu2H40C28N8O12
_chemical_formula_sum              "Cu2 H40 C28 N8 O12"
_cell_length_a       9.0568
_cell_length_b       9.05679
_cell_length_c       11.4028
_cell_angle_alpha    70.4824
_cell_angle_beta     70.4823
_cell_angle_gamma    77.5789

_space_group_name_H-M_alt    "P 1"
_space_group_IT_number       1

loop_
  _space_group_symop_operation_xyz
  'x, y, z'

loop_
  _atom_site_type_symbol
  _atom_site_label
  _atom_site_symmetry_multiplicity
  _atom_site_fract_x
  _atom_site_fract_y
  _atom_site_fract_z
  _atom_site_occupancy
  Cu  Cu1       1.0  0.05105  0.94895  0.75000  1.0000
  Cu  Cu2       1.0  0.94895  0.05105  0.25000  1.0000
  H   H1        1.0  0.41326  0.91608  0.74748  1.0000
  H   H2        1.0  0.08393  0.58674  0.75251  1.0000
  H   H3        1.0  0.58674  0.08393  0.25251  1.0000
  H   H4        1.0  0.91608  0.41326  0.24749  1.0000
  H   H5        1.0  0.64653  0.77405  0.57546  1.0000
  H   H6        1.0  0.22594  0.35347  0.92454  1.0000
  H   H7        1.0  0.35347  0.22595  0.42454  1.0000
  H   H8        1.0  0.77405  0.64653  0.07546  1.0000
  H   H9        1.0  0.21580  0.85568  0.48155  1.0000
  H   H10       1.0  0.14432  0.78420  0.01845  1.0000
  H   H11       1.0  0.78420  0.14432  0.51845  1.0000
  H   H12       1.0  0.85568  0.21581  0.98155  1.0000
  H   H13       1.0  0.44290  0.74145  0.33900  1.0000
  H   H14       1.0  0.25855  0.55710  0.16100  1.0000
  H   H15       1.0  0.55710  0.25855  0.66100  1.0000
  H   H16       1.0  0.74145  0.44290  0.83900  1.0000
  H   H17       1.0  0.63197  0.77570  0.32943  1.0000
  H   H18       1.0  0.22430  0.36803  0.17057  1.0000
  H   H19       1.0  0.36803  0.22430  0.67057  1.0000
  H   H20       1.0  0.77570  0.63197  0.82943  1.0000
  H   H21       1.0  0.61907  0.49064  0.36850  1.0000
  H   H22       1.0  0.50935  0.38093  0.13150  1.0000
  H   H23       1.0  0.38093  0.50935  0.63150  1.0000
  H   H24       1.0  0.49065  0.61907  0.86850  1.0000
  H   H25       1.0  0.66600  0.52248  0.49532  1.0000
  H   H26       1.0  0.47752  0.33400  0.00468  1.0000
  H   H27       1.0  0.33400  0.47752  0.50468  1.0000
  H   H28       1.0  0.52248  0.66600  0.99532  1.0000
  H   H29       1.0  0.60798  0.02158  0.07122  1.0000
  H   H30       1.0  0.97842  0.39203  0.42878  1.0000
  H   H31       1.0  0.39203  0.97842  0.92878  1.0000
  H   H32       1.0  0.02158  0.60797  0.57122  1.0000
  H   H33       1.0  0.10584  0.17577  0.81991  1.0000
  H   H34       1.0  0.82423  0.89416  0.68009  1.0000
  H   H35       1.0  0.89416  0.82423  0.18009  1.0000
  H   H36       1.0  0.17577  0.10584  0.31991  1.0000
  H   H37       1.0  0.14212  0.06310  0.95260  1.0000
  H   H38       1.0  0.93690  0.85788  0.54740  1.0000
  H   H39       1.0  0.85788  0.93690  0.04740  1.0000
  H   H40       1.0  0.06310  0.14212  0.45259  1.0000
  C   C1        1.0  0.40579  0.87982  0.66853  1.0000
  C   C2        1.0  0.12018  0.59421  0.83147  1.0000
  C   C3        1.0  0.59420  0.12018  0.33147  1.0000
  C   C4        1.0  0.87982  0.40580  0.16853  1.0000
  C   C5        1.0  0.52214  0.80957  0.58394  1.0000
  C   C6        1.0  0.19043  0.47786  0.91605  1.0000
  C   C7        1.0  0.47786  0.19043  0.41606  1.0000
  C   C8        1.0  0.80957  0.52214  0.08395  1.0000
  C   C9        1.0  0.29863  0.85339  0.53237  1.0000
  C   C10       1.0  0.14661  0.70137  0.96763  1.0000
  C   C11       1.0  0.70137  0.14660  0.46763  1.0000
  C   C12       1.0  0.85340  0.29863  0.03237  1.0000
  C   C13       1.0  0.52738  0.71812  0.39507  1.0000
  C   C14       1.0  0.28188  0.47261  0.10493  1.0000
  C   C15       1.0  0.47261  0.28188  0.60493  1.0000
  C   C16       1.0  0.71812  0.52739  0.89507  1.0000
  C   C17       1.0  0.57010  0.54146  0.45073  1.0000
  C   C18       1.0  0.45854  0.42989  0.04927  1.0000
  C   C19       1.0  0.42989  0.45854  0.54927  1.0000
  C   C20       1.0  0.54146  0.57010  0.95073  1.0000
  C   C21       1.0  0.70482  0.98861  0.87420  1.0000
  C   C22       1.0  0.01139  0.29518  0.62580  1.0000
  C   C23       1.0  0.29519  0.01139  0.12580  1.0000
  C   C24       1.0  0.98861  0.70481  0.37420  1.0000
  C   C25       1.0  0.57530  0.00534  0.99303  1.0000
  C   C26       1.0  0.99466  0.42470  0.50698  1.0000
  C   C27       1.0  0.42470  0.99465  0.00698  1.0000
  C   C28       1.0  0.00534  0.57530  0.49302  1.0000
  N   N1        1.0  0.26731  0.90661  0.63497  1.0000
  N   N2        1.0  0.09339  0.73269  0.86503  1.0000
  N   N3        1.0  0.73269  0.09338  0.36503  1.0000
  N   N4        1.0  0.90662  0.26731  0.13497  1.0000
  N   N5        1.0  0.45250  0.79475  0.49815  1.0000
  N   N6        1.0  0.20525  0.54750  0.00184  1.0000
  N   N7        1.0  0.54750  0.20525  0.50184  1.0000
  N   N8        1.0  0.79475  0.45250  0.99816  1.0000
  O   O1        1.0  0.84512  0.98744  0.88179  1.0000
  O   O2        1.0  0.01256  0.15488  0.61821  1.0000
  O   O3        1.0  0.15488  0.01256  0.11821  1.0000
  O   O4        1.0  0.98744  0.84512  0.38180  1.0000
  O   O5        1.0  0.67310  0.97537  0.77922  1.0000
  O   O6        1.0  0.02463  0.32691  0.72078  1.0000
  O   O7        1.0  0.32690  0.02463  0.22079  1.0000
  O   O8        1.0  0.97538  0.67310  0.27921  1.0000
  O   O9        1.0  0.16772  0.07680  0.85867  1.0000
  O   O10       1.0  0.92320  0.83227  0.64133  1.0000
  O   O11       1.0  0.83227  0.92320  0.14133  1.0000
  O   O12       1.0  0.07680  0.16773  0.35867  1.0000
