data_image0
_chemical_formula_structural       Ag4H36C32S4N8O14
_chemical_formula_sum              "Ag4 H36 C32 S4 N8 O14"
_cell_length_a       7.49895
_cell_length_b       12.2597
_cell_length_c       12.642
_cell_angle_alpha    113.055
_cell_angle_beta     105.688
_cell_angle_gamma    94.1129

_space_group_name_H-M_alt    "P 1"
_space_group_IT_number       1

loop_
  _space_group_symop_operation_xyz
  'x, y, z'

loop_
  _atom_site_type_symbol
  _atom_site_label
  _atom_site_symmetry_multiplicity
  _atom_site_fract_x
  _atom_site_fract_y
  _atom_site_fract_z
  _atom_site_occupancy
  Ag  Ag1       1.0  0.51993  0.53753  0.76748  1.0000
  Ag  Ag2       1.0  0.48007  0.46247  0.23252  1.0000
  Ag  Ag3       1.0  0.82273  0.44062  0.66969  1.0000
  Ag  Ag4       1.0  0.17728  0.55938  0.33031  1.0000
  H   H1        1.0  0.23859  0.06065  0.34802  1.0000
  H   H2        1.0  0.76141  0.93935  0.65198  1.0000
  H   H3        1.0  0.17242  0.85267  0.33660  1.0000
  H   H4        1.0  0.82758  0.14734  0.66340  1.0000
  H   H5        1.0  0.20862  0.82363  0.52468  1.0000
  H   H6        1.0  0.79139  0.17637  0.47532  1.0000
  H   H7        1.0  0.30397  0.00009  0.72558  1.0000
  H   H8        1.0  0.69603  0.99991  0.27443  1.0000
  H   H9        1.0  0.17145  0.90225  0.83697  1.0000
  H   H10       1.0  0.82854  0.09774  0.16302  1.0000
  H   H11       1.0  0.18898  0.12408  0.88627  1.0000
  H   H12       1.0  0.81102  0.87591  0.11373  1.0000
  H   H13       1.0  0.91517  0.21730  0.91174  1.0000
  H   H14       1.0  0.08484  0.78270  0.08826  1.0000
  H   H15       1.0  0.61627  0.09682  0.89192  1.0000
  H   H16       1.0  0.38373  0.90318  0.10808  1.0000
  H   H17       1.0  0.79530  0.51479  0.95495  1.0000
  H   H18       1.0  0.20471  0.48521  0.04505  1.0000
  H   H19       1.0  0.99523  0.59339  0.94652  1.0000
  H   H20       1.0  0.00477  0.40661  0.05349  1.0000
  H   H21       1.0  0.82638  0.33543  0.81866  1.0000
  H   H22       1.0  0.17363  0.66457  0.18134  1.0000
  H   H23       1.0  0.04634  0.38425  0.82984  1.0000
  H   H24       1.0  0.95366  0.61575  0.17016  1.0000
  H   H25       1.0  0.65103  0.37529  0.43376  1.0000
  H   H26       1.0  0.34897  0.62471  0.56624  1.0000
  H   H27       1.0  0.69782  0.52541  0.50439  1.0000
  H   H28       1.0  0.30218  0.47459  0.49561  1.0000
  H   H29       1.0  0.87370  0.47641  0.37232  1.0000
  H   H30       1.0  0.12630  0.52360  0.62769  1.0000
  H   H31       1.0  0.94832  0.36303  0.41737  1.0000
  H   H32       1.0  0.05168  0.63697  0.58263  1.0000
  H   H33       1.0  0.35150  0.64943  0.96776  1.0000
  H   H34       1.0  0.64850  0.35057  0.03224  1.0000
  H   H35       1.0  0.19566  0.64639  0.85537  1.0000
  H   H36       1.0  0.80435  0.35361  0.14463  1.0000
  C   C1        1.0  0.34879  0.27673  0.56944  1.0000
  C   C2        1.0  0.65121  0.72327  0.43056  1.0000
  C   C3        1.0  0.30462  0.14580  0.54216  1.0000
  C   C4        1.0  0.69538  0.85420  0.45784  1.0000
  C   C5        1.0  0.25132  0.04687  0.42937  1.0000
  C   C6        1.0  0.74868  0.95313  0.57063  1.0000
  C   C7        1.0  0.21595  0.93109  0.42439  1.0000
  C   C8        1.0  0.78405  0.06891  0.57561  1.0000
  C   C9        1.0  0.23471  0.91460  0.53000  1.0000
  C   C10       1.0  0.76530  0.08540  0.47001  1.0000
  C   C11       1.0  0.28909  0.01382  0.64398  1.0000
  C   C12       1.0  0.71091  0.98618  0.35603  1.0000
  C   C13       1.0  0.32277  0.12786  0.64673  1.0000
  C   C14       1.0  0.67723  0.87214  0.35327  1.0000
  C   C15       1.0  0.84296  0.74761  0.81125  1.0000
  C   C16       1.0  0.15703  0.25239  0.18875  1.0000
  C   C17       1.0  0.88309  0.87763  0.83486  1.0000
  C   C18       1.0  0.11690  0.12237  0.16513  1.0000
  C   C19       1.0  0.05074  0.94502  0.84671  1.0000
  C   C20       1.0  0.94925  0.05497  0.15328  1.0000
  C   C21       1.0  0.05899  0.06776  0.87341  1.0000
  C   C22       1.0  0.94101  0.93224  0.12659  1.0000
  C   C23       1.0  0.90349  0.12112  0.88812  1.0000
  C   C24       1.0  0.09651  0.87887  0.11187  1.0000
  C   C25       1.0  0.73445  0.05412  0.87637  1.0000
  C   C26       1.0  0.26555  0.94588  0.12363  1.0000
  C   C27       1.0  0.72926  0.93267  0.84934  1.0000
  C   C28       1.0  0.27074  0.06733  0.15065  1.0000
  C   C29       1.0  0.93704  0.50901  0.94677  1.0000
  C   C30       1.0  0.06296  0.49099  0.05323  1.0000
  C   C31       1.0  0.91434  0.45349  0.45077  1.0000
  C   C32       1.0  0.08566  0.54652  0.54923  1.0000
  S   S1        1.0  0.39199  0.27210  0.77188  1.0000
  S   S2        1.0  0.60801  0.72790  0.22812  1.0000
  S   S3        1.0  0.54539  0.82301  0.83349  1.0000
  S   S4        1.0  0.45460  0.17699  0.16651  1.0000
  N   N1        1.0  0.91730  0.40799  0.82882  1.0000
  N   N2        1.0  0.08270  0.59201  0.17118  1.0000
  N   N3        1.0  0.75358  0.44919  0.49702  1.0000
  N   N4        1.0  0.24643  0.55081  0.50299  1.0000
  N   N5        1.0  0.39824  0.34961  0.69218  1.0000
  N   N6        1.0  0.60177  0.65039  0.30782  1.0000
  N   N7        1.0  0.66480  0.71207  0.80956  1.0000
  N   N8        1.0  0.33519  0.28793  0.19044  1.0000
  O   O1        1.0  0.34299  0.31523  0.49132  1.0000
  O   O2        1.0  0.65700  0.68476  0.50868  1.0000
  O   O3        1.0  0.58113  0.28736  0.85427  1.0000
  O   O4        1.0  0.41887  0.71264  0.14573  1.0000
  O   O5        1.0  0.24860  0.29654  0.83114  1.0000
  O   O6        1.0  0.75141  0.70346  0.16886  1.0000
  O   O7        1.0  0.96014  0.68043  0.79658  1.0000
  O   O8        1.0  0.03985  0.31957  0.20343  1.0000
  O   O9        1.0  0.38411  0.79452  0.72539  1.0000
  O   O10       1.0  0.61588  0.20548  0.27461  1.0000
  O   O11       1.0  0.50376  0.85509  0.94612  1.0000
  O   O12       1.0  0.49624  0.14491  0.05389  1.0000
  O   O13       1.0  0.28394  0.59910  0.88131  1.0000
  O   O14       1.0  0.71606  0.40090  0.11870  1.0000
