data_image0
_chemical_formula_structural       Cu2NiH32C26N6O14
_chemical_formula_sum              "Cu2 Ni1 H32 C26 N6 O14"
_cell_length_a       9.03448
_cell_length_b       8.70702
_cell_length_c       11.4978
_cell_angle_alpha    77.6675
_cell_angle_beta     80.4625
_cell_angle_gamma    83.4972

_space_group_name_H-M_alt    "P 1"
_space_group_IT_number       1

loop_
  _space_group_symop_operation_xyz
  'x, y, z'

loop_
  _atom_site_type_symbol
  _atom_site_label
  _atom_site_symmetry_multiplicity
  _atom_site_fract_x
  _atom_site_fract_y
  _atom_site_fract_z
  _atom_site_occupancy
  Cu  Cu1       1.0  0.80854  0.62425  0.28634  1.0000
  Cu  Cu2       1.0  0.19134  0.37583  0.71388  1.0000
  Ni  Ni1       1.0  0.99993  0.00003  0.99996  1.0000
  H   H1        1.0  0.50709  0.06708  0.11925  1.0000
  H   H2        1.0  0.49282  0.93277  0.88068  1.0000
  H   H3        1.0  0.37848  0.01414  0.25120  1.0000
  H   H4        1.0  0.62146  0.98572  0.74873  1.0000
  H   H5        1.0  0.46755  0.50892  0.21487  1.0000
  H   H6        1.0  0.53245  0.49105  0.78511  1.0000
  H   H7        1.0  0.57529  0.57675  0.07267  1.0000
  H   H8        1.0  0.42464  0.42328  0.92733  1.0000
  H   H9        1.0  0.90717  0.20798  0.33271  1.0000
  H   H10       1.0  0.09273  0.79204  0.66722  1.0000
  H   H11       1.0  0.99312  0.28174  0.18481  1.0000
  H   H12       1.0  0.00678  0.71824  0.81516  1.0000
  H   H13       1.0  0.15373  0.32754  0.34915  1.0000
  H   H14       1.0  0.84647  0.67244  0.65092  1.0000
  H   H15       1.0  0.33138  0.41726  0.42955  1.0000
  H   H16       1.0  0.66870  0.58269  0.57046  1.0000
  H   H17       1.0  0.44650  0.62544  0.49581  1.0000
  H   H18       1.0  0.55366  0.37441  0.50422  1.0000
  H   H19       1.0  0.31320  0.89387  0.48319  1.0000
  H   H20       1.0  0.68703  0.10606  0.51685  1.0000
  H   H21       1.0  0.06570  0.95186  0.40785  1.0000
  H   H22       1.0  0.93450  0.04809  0.59218  1.0000
  H   H23       1.0  0.36291  0.79876  0.10455  1.0000
  H   H24       1.0  0.63690  0.20125  0.89524  1.0000
  H   H25       1.0  0.18908  0.90619  0.82292  1.0000
  H   H26       1.0  0.81097  0.09379  0.17715  1.0000
  H   H27       1.0  0.10323  0.07242  0.76248  1.0000
  H   H28       1.0  0.89685  0.92758  0.23758  1.0000
  H   H29       1.0  0.01189  0.30585  0.88829  1.0000
  H   H30       1.0  0.98804  0.69410  0.11174  1.0000
  H   H31       1.0  0.09832  0.25493  0.00415  1.0000
  H   H32       1.0  0.90166  0.74501  0.99588  1.0000
  C   C1        1.0  0.27371  0.06956  0.09068  1.0000
  C   C2        1.0  0.72616  0.93051  0.90925  1.0000
  C   C3        1.0  0.40762  0.00092  0.15683  1.0000
  C   C4        1.0  0.59222  0.99903  0.84308  1.0000
  C   C5        1.0  0.54785  0.73943  0.19288  1.0000
  C   C6        1.0  0.45191  0.26060  0.80709  1.0000
  C   C7        1.0  0.56766  0.57180  0.17020  1.0000
  C   C8        1.0  0.43229  0.42825  0.82979  1.0000
  C   C9        1.0  0.75589  0.35094  0.21758  1.0000
  C   C10       1.0  0.24412  0.64924  0.78244  1.0000
  C   C11       1.0  0.91066  0.31250  0.25960  1.0000
  C   C12       1.0  0.08934  0.68758  0.74038  1.0000
  C   C13       1.0  0.08063  0.43830  0.34248  1.0000
  C   C14       1.0  0.91951  0.56167  0.65753  1.0000
  C   C15       1.0  0.13442  0.56519  0.38177  1.0000
  C   C16       1.0  0.86572  0.43480  0.61822  1.0000
  C   C17       1.0  0.27437  0.53547  0.42569  1.0000
  C   C18       1.0  0.72577  0.46450  0.57430  1.0000
  C   C19       1.0  0.33875  0.65060  0.46247  1.0000
  C   C20       1.0  0.66143  0.34932  0.53753  1.0000
  C   C21       1.0  0.26324  0.80184  0.45501  1.0000
  C   C22       1.0  0.73699  0.19811  0.54500  1.0000
  C   C23       1.0  0.12503  0.83481  0.41397  1.0000
  C   C24       1.0  0.87520  0.16515  0.58604  1.0000
  C   C25       1.0  0.05464  0.71827  0.37833  1.0000
  C   C26       1.0  0.94552  0.28172  0.62170  1.0000
  N   N1        1.0  0.43744  0.83572  0.14903  1.0000
  N   N2        1.0  0.56234  0.16425  0.85082  1.0000
  N   N3        1.0  0.70389  0.50036  0.21538  1.0000
  N   N4        1.0  0.29611  0.49983  0.78465  1.0000
  N   N5        1.0  0.95605  0.44586  0.29925  1.0000
  N   N6        1.0  0.04407  0.55416  0.70076  1.0000
  O   O1        1.0  0.09374  0.97881  0.82830  1.0000
  O   O2        1.0  0.90620  0.02109  0.17168  1.0000
  O   O3        1.0  0.00020  0.25076  0.97215  1.0000
  O   O4        1.0  0.99974  0.74919  0.02788  1.0000
  O   O5        1.0  0.20895  0.96860  0.05516  1.0000
  O   O6        1.0  0.79090  0.03155  0.94473  1.0000
  O   O7        1.0  0.23880  0.21637  0.07756  1.0000
  O   O8        1.0  0.76114  0.78372  0.92240  1.0000
  O   O9        1.0  0.63653  0.78594  0.25115  1.0000
  O   O10       1.0  0.36305  0.21414  0.74896  1.0000
  O   O11       1.0  0.69064  0.24762  0.18782  1.0000
  O   O12       1.0  0.30936  0.75255  0.81222  1.0000
  O   O13       1.0  0.91999  0.75694  0.34521  1.0000
  O   O14       1.0  0.08010  0.24308  0.65494  1.0000
