data_image0
_chemical_formula_structural       Fe2Ni2H30C30N22O4
_chemical_formula_sum              "Fe2 Ni2 H30 C30 N22 O4"
_cell_length_a       9.63213
_cell_length_b       10.5456
_cell_length_c       10.5456
_cell_angle_alpha    67.8593
_cell_angle_beta     86.5772
_cell_angle_gamma    86.5774

_space_group_name_H-M_alt    "P 1"
_space_group_IT_number       1

loop_
  _space_group_symop_operation_xyz
  'x, y, z'

loop_
  _atom_site_type_symbol
  _atom_site_label
  _atom_site_symmetry_multiplicity
  _atom_site_fract_x
  _atom_site_fract_y
  _atom_site_fract_z
  _atom_site_occupancy
  Fe  Fe1       1.0  0.25000  0.74545  0.25455  1.0000
  Fe  Fe2       1.0  0.75000  0.25455  0.74545  1.0000
  Ni  Ni1       1.0  0.50000  0.50001  0.00000  1.0000
  Ni  Ni2       1.0  0.00000  0.00000  0.49999  1.0000
  H   H1        1.0  0.25000  0.25340  0.74660  1.0000
  H   H2        1.0  0.75000  0.74660  0.25340  1.0000
  H   H3        1.0  0.39835  0.23293  0.93996  1.0000
  H   H4        1.0  0.10165  0.06004  0.76706  1.0000
  H   H5        1.0  0.60165  0.76707  0.06004  1.0000
  H   H6        1.0  0.89835  0.93996  0.23294  1.0000
  H   H7        1.0  0.43486  0.21453  0.15842  1.0000
  H   H8        1.0  0.06514  0.84158  0.78547  1.0000
  H   H9        1.0  0.56514  0.78547  0.84158  1.0000
  H   H10       1.0  0.93486  0.15842  0.21453  1.0000
  H   H11       1.0  0.59336  0.12561  0.14683  1.0000
  H   H12       1.0  0.90663  0.85317  0.87439  1.0000
  H   H13       1.0  0.40663  0.87439  0.85318  1.0000
  H   H14       1.0  0.09337  0.14682  0.12562  1.0000
  H   H15       1.0  0.50842  0.09456  0.30945  1.0000
  H   H16       1.0  0.99157  0.69054  0.90545  1.0000
  H   H17       1.0  0.49156  0.90545  0.69055  1.0000
  H   H18       1.0  0.00843  0.30945  0.09456  1.0000
  H   H19       1.0  0.55478  0.88774  0.40787  1.0000
  H   H20       1.0  0.94522  0.59213  0.11226  1.0000
  H   H21       1.0  0.44521  0.11227  0.59214  1.0000
  H   H22       1.0  0.05479  0.40786  0.88773  1.0000
  H   H23       1.0  0.63169  0.70697  0.57484  1.0000
  H   H24       1.0  0.86830  0.42516  0.29304  1.0000
  H   H25       1.0  0.36830  0.29303  0.42517  1.0000
  H   H26       1.0  0.13170  0.57483  0.70697  1.0000
  H   H27       1.0  0.56690  0.54428  0.61739  1.0000
  H   H28       1.0  0.93310  0.38261  0.45573  1.0000
  H   H29       1.0  0.43310  0.45573  0.38261  1.0000
  H   H30       1.0  0.06690  0.61739  0.54428  1.0000
  C   C1        1.0  0.42312  0.59040  0.10627  1.0000
  C   C2        1.0  0.07687  0.89373  0.40960  1.0000
  C   C3        1.0  0.57687  0.40961  0.89372  1.0000
  C   C4        1.0  0.92313  0.10627  0.59039  1.0000
  C   C5        1.0  0.67698  0.50789  0.05348  1.0000
  C   C6        1.0  0.82302  0.94652  0.49210  1.0000
  C   C7        1.0  0.32301  0.49212  0.94652  1.0000
  C   C8        1.0  0.17699  0.05347  0.50788  1.0000
  C   C9        1.0  0.25000  0.16074  0.83925  1.0000
  C   C10       1.0  0.75000  0.83925  0.16074  1.0000
  C   C11       1.0  0.33223  0.15031  0.94745  1.0000
  C   C12       1.0  0.16777  0.05255  0.84968  1.0000
  C   C13       1.0  0.66777  0.84969  0.05255  1.0000
  C   C14       1.0  0.83223  0.94745  0.15032  1.0000
  C   C15       1.0  0.32945  0.03008  0.06539  1.0000
  C   C16       1.0  0.17055  0.93460  0.96992  1.0000
  C   C17       1.0  0.67055  0.96992  0.93461  1.0000
  C   C18       1.0  0.82945  0.06539  0.03008  1.0000
  C   C19       1.0  0.41122  0.00515  0.18607  1.0000
  C   C20       1.0  0.08878  0.81393  0.99485  1.0000
  C   C21       1.0  0.58878  0.99485  0.81393  1.0000
  C   C22       1.0  0.91122  0.18607  0.00515  1.0000
  C   C23       1.0  0.49132  0.11499  0.20157  1.0000
  C   C24       1.0  0.00867  0.79842  0.88501  1.0000
  C   C25       1.0  0.50867  0.88501  0.79843  1.0000
  C   C26       1.0  0.99133  0.20157  0.11499  1.0000
  C   C27       1.0  0.46398  0.69681  0.47064  1.0000
  C   C28       1.0  0.03602  0.52937  0.30319  1.0000
  C   C29       1.0  0.53603  0.30319  0.52937  1.0000
  C   C30       1.0  0.96398  0.47063  0.69681  1.0000
  N   N1        1.0  0.36721  0.65087  0.16952  1.0000
  N   N2        1.0  0.13278  0.83048  0.34913  1.0000
  N   N3        1.0  0.63279  0.34913  0.83048  1.0000
  N   N4        1.0  0.86722  0.16952  0.65087  1.0000
  N   N5        1.0  0.79069  0.51365  0.08495  1.0000
  N   N6        1.0  0.70931  0.91506  0.48635  1.0000
  N   N7        1.0  0.20933  0.48634  0.91503  1.0000
  N   N8        1.0  0.29068  0.08496  0.51365  1.0000
  N   N9        1.0  0.25000  0.92587  0.07413  1.0000
  N   N10       1.0  0.75000  0.07412  0.92588  1.0000
  N   N11       1.0  0.40480  0.87961  0.27427  1.0000
  N   N12       1.0  0.09520  0.72573  0.12039  1.0000
  N   N13       1.0  0.59521  0.12039  0.72573  1.0000
  N   N14       1.0  0.90480  0.27426  0.87961  1.0000
  N   N15       1.0  0.47656  0.83410  0.38874  1.0000
  N   N16       1.0  0.02344  0.61126  0.16590  1.0000
  N   N17       1.0  0.52344  0.16590  0.61126  1.0000
  N   N18       1.0  0.97656  0.38874  0.83410  1.0000
  N   N19       1.0  0.55189  0.64791  0.57431  1.0000
  N   N20       1.0  0.94811  0.42569  0.35209  1.0000
  N   N21       1.0  0.44811  0.35209  0.42570  1.0000
  N   N22       1.0  0.05189  0.57430  0.64791  1.0000
  O   O1        1.0  0.37444  0.62721  0.44779  1.0000
  O   O2        1.0  0.12556  0.55222  0.37279  1.0000
  O   O3        1.0  0.62556  0.37279  0.55221  1.0000
  O   O4        1.0  0.87445  0.44778  0.62721  1.0000
