data_image0
_chemical_formula_structural       ZnSiH30C44N6O12F6
_chemical_formula_sum              "Zn1 Si1 H30 C44 N6 O12 F6"
_cell_length_a       7.65012
_cell_length_b       12.2109
_cell_length_c       16.5182
_cell_angle_alpha    99.5138
_cell_angle_beta     89.9978
_cell_angle_gamma    108.244

_space_group_name_H-M_alt    "P 1"
_space_group_IT_number       1

loop_
  _space_group_symop_operation_xyz
  'x, y, z'

loop_
  _atom_site_type_symbol
  _atom_site_label
  _atom_site_symmetry_multiplicity
  _atom_site_fract_x
  _atom_site_fract_y
  _atom_site_fract_z
  _atom_site_occupancy
  Zn  Zn1       1.0  0.21662  0.99996  0.50008  1.0000
  Si  Si1       1.0  0.71217  0.99995  0.50012  1.0000
  H   H1        1.0  0.12100  0.22757  0.52032  1.0000
  H   H2        1.0  0.89334  0.77215  0.47988  1.0000
  H   H3        1.0  0.22296  0.42643  0.61040  1.0000
  H   H4        1.0  0.79631  0.57352  0.38950  1.0000
  H   H5        1.0  0.56203  0.29835  0.75500  1.0000
  H   H6        1.0  0.26414  0.70171  0.24531  1.0000
  H   H7        1.0  0.47117  0.11257  0.65154  1.0000
  H   H8        1.0  0.35897  0.88725  0.34898  1.0000
  H   H9        1.0  0.52979  0.65984  0.85409  1.0000
  H   H10       1.0  0.87045  0.34071  0.14564  1.0000
  H   H11       1.0  0.85576  0.57395  0.88392  1.0000
  H   H12       1.0  0.28228  0.42630  0.11579  1.0000
  H   H13       1.0  0.87247  0.87018  0.75355  1.0000
  H   H14       1.0  0.00189  0.13023  0.24662  1.0000
  H   H15       1.0  0.95750  0.97605  0.63544  1.0000
  H   H16       1.0  0.98108  0.02408  0.36456  1.0000
  H   H17       1.0  0.38679  0.83972  0.58170  1.0000
  H   H18       1.0  0.54650  0.16010  0.41832  1.0000
  H   H19       1.0  0.31750  0.72678  0.69930  1.0000
  H   H20       1.0  0.59032  0.27322  0.30083  1.0000
  H   H21       1.0  0.72619  0.87961  0.10083  1.0000
  H   H22       1.0  0.84639  0.11994  0.89898  1.0000
  H   H23       1.0  0.70765  0.93036  0.25365  1.0000
  H   H24       1.0  0.77702  0.06936  0.74616  1.0000
  H   H25       1.0  0.62983  0.77577  0.33817  1.0000
  H   H26       1.0  0.85326  0.22403  0.66173  1.0000
  H   H27       1.0  0.56624  0.56533  0.27121  1.0000
  H   H28       1.0  0.00015  0.43444  0.72873  1.0000
  H   H29       1.0  0.59203  0.51555  0.12087  1.0000
  H   H30       1.0  0.07636  0.48403  0.87904  1.0000
  C   C1        1.0  0.22450  0.24914  0.57083  1.0000
  C   C2        1.0  0.97530  0.75067  0.42935  1.0000
  C   C3        1.0  0.27748  0.35777  0.62192  1.0000
  C   C4        1.0  0.91966  0.64215  0.37811  1.0000
  C   C5        1.0  0.39844  0.37650  0.69002  1.0000
  C   C6        1.0  0.02204  0.62353  0.31004  1.0000
  C   C7        1.0  0.46702  0.28699  0.70303  1.0000
  C   C8        1.0  0.18031  0.71302  0.29722  1.0000
  C   C9        1.0  0.41449  0.18291  0.64650  1.0000
  C   C10       1.0  0.23181  0.81697  0.35390  1.0000
  C   C11       1.0  0.45289  0.49269  0.74495  1.0000
  C   C12       1.0  0.96030  0.50756  0.25483  1.0000
  C   C13       1.0  0.58594  0.59619  0.87582  1.0000
  C   C14       1.0  0.99027  0.40438  0.12393  1.0000
  C   C15       1.0  0.79444  0.64486  0.88686  1.0000
  C   C16       1.0  0.14998  0.35556  0.11299  1.0000
  C   C17       1.0  0.82768  0.71356  0.97474  1.0000
  C   C18       1.0  0.11421  0.28642  0.02522  1.0000
  C   C19       1.0  0.52626  0.58469  0.96331  1.0000
  C   C20       1.0  0.94208  0.41558  0.03640  1.0000
  C   C21       1.0  0.03941  0.71915  0.80169  1.0000
  C   C22       1.0  0.32013  0.28113  0.19837  1.0000
  C   C23       1.0  0.08903  0.79010  0.73494  1.0000
  C   C24       1.0  0.29857  0.21019  0.26514  1.0000
  C   C25       1.0  0.98785  0.86173  0.71750  1.0000
  C   C26       1.0  0.12577  0.13861  0.28262  1.0000
  C   C27       1.0  0.03547  0.92130  0.65199  1.0000
  C   C28       1.0  0.11380  0.07886  0.34805  1.0000
  C   C29       1.0  0.27421  0.84354  0.62156  1.0000
  C   C30       1.0  0.43016  0.15643  0.37850  1.0000
  C   C31       1.0  0.23660  0.78201  0.68681  1.0000
  C   C32       1.0  0.45413  0.21807  0.31329  1.0000
  C   C33       1.0  0.65656  0.69473  0.10279  1.0000
  C   C34       1.0  0.96161  0.30486  0.89707  1.0000
  C   C35       1.0  0.69112  0.81181  0.13893  1.0000
  C   C36       1.0  0.87904  0.18782  0.86093  1.0000
  C   C37       1.0  0.68148  0.83980  0.22385  1.0000
  C   C38       1.0  0.84136  0.15991  0.77600  1.0000
  C   C39       1.0  0.63655  0.75177  0.27190  1.0000
  C   C40       1.0  0.88422  0.24798  0.72799  1.0000
  C   C41       1.0  0.60136  0.63500  0.23453  1.0000
  C   C42       1.0  0.96582  0.36474  0.76539  1.0000
  C   C43       1.0  0.61299  0.60576  0.14986  1.0000
  C   C44       1.0  0.00690  0.39388  0.85002  1.0000
  N   N1        1.0  0.29369  0.16393  0.58257  1.0000
  N   N2        1.0  0.12983  0.83586  0.41776  1.0000
  N   N3        1.0  0.66825  0.66576  0.01602  1.0000
  N   N4        1.0  0.00252  0.33405  0.98383  1.0000
  N   N5        1.0  0.17427  0.91114  0.60434  1.0000
  N   N6        1.0  0.26267  0.08883  0.39569  1.0000
  O   O1        1.0  0.43991  0.58179  0.72500  1.0000
  O   O2        1.0  0.85796  0.41837  0.27452  1.0000
  O   O3        1.0  0.52088  0.48726  0.82033  1.0000
  O   O4        1.0  0.03394  0.51327  0.17946  1.0000
  O   O5        1.0  0.86909  0.71726  0.82777  1.0000
  O   O6        1.0  0.15192  0.28336  0.17228  1.0000
  O   O7        1.0  0.13248  0.66635  0.82765  1.0000
  O   O8        1.0  0.46613  0.33363  0.17242  1.0000
  O   O9        1.0  0.96432  0.79305  0.00346  1.0000
  O   O10       1.0  0.17118  0.20675  0.99670  1.0000
  O   O11       1.0  0.38106  0.52208  0.98358  1.0000
  O   O12       1.0  0.85963  0.47814  0.01593  1.0000
  F   F1        1.0  0.48519  0.00027  0.50019  1.0000
  F   F2        1.0  0.71645  0.01266  0.60456  1.0000
  F   F3        1.0  0.70347  0.98724  0.39569  1.0000
  F   F4        1.0  0.78741  0.14862  0.50920  1.0000
  F   F5        1.0  0.63810  0.85127  0.49107  1.0000
  F   F6        1.0  0.94062  0.99969  0.50001  1.0000
