data_image0
_chemical_formula_structural       Ag4H32C32N8O8F12
_chemical_formula_sum              "Ag4 H32 C32 N8 O8 F12"
_cell_length_a       4.71611
_cell_length_b       9.8653
_cell_length_c       22.1587
_cell_angle_alpha    90.0004
_cell_angle_beta     90
_cell_angle_gamma    90

_space_group_name_H-M_alt    "P 1"
_space_group_IT_number       1

loop_
  _space_group_symop_operation_xyz
  'x, y, z'

loop_
  _atom_site_type_symbol
  _atom_site_label
  _atom_site_symmetry_multiplicity
  _atom_site_fract_x
  _atom_site_fract_y
  _atom_site_fract_z
  _atom_site_occupancy
  Ag  Ag1       1.0  0.68115  0.77337  0.21934  1.0000
  Ag  Ag2       1.0  0.81885  0.22663  0.71934  1.0000
  Ag  Ag3       1.0  0.31885  0.27337  0.28066  1.0000
  Ag  Ag4       1.0  0.18114  0.72663  0.78066  1.0000
  H   H1        1.0  0.68458  0.46291  0.24822  1.0000
  H   H2        1.0  0.81542  0.53710  0.74822  1.0000
  H   H3        1.0  0.31542  0.96290  0.25178  1.0000
  H   H4        1.0  0.18458  0.03709  0.75178  1.0000
  H   H5        1.0  0.69469  0.33679  0.19992  1.0000
  H   H6        1.0  0.80530  0.66321  0.69992  1.0000
  H   H7        1.0  0.30530  0.83679  0.30008  1.0000
  H   H8        1.0  0.19469  0.16321  0.80008  1.0000
  H   H9        1.0  0.29787  0.57039  0.19873  1.0000
  H   H10       1.0  0.20213  0.42961  0.69873  1.0000
  H   H11       1.0  0.70213  0.07038  0.30127  1.0000
  H   H12       1.0  0.79786  0.92961  0.80127  1.0000
  H   H13       1.0  0.24081  0.42247  0.15436  1.0000
  H   H14       1.0  0.25918  0.57754  0.65436  1.0000
  H   H15       1.0  0.75918  0.92246  0.34564  1.0000
  H   H16       1.0  0.74081  0.07754  0.84564  1.0000
  H   H17       1.0  0.49421  0.38742  0.06203  1.0000
  H   H18       1.0  0.00578  0.61258  0.56204  1.0000
  H   H19       1.0  0.50578  0.88742  0.43796  1.0000
  H   H20       1.0  0.99421  0.11258  0.93797  1.0000
  H   H21       1.0  0.84024  0.47318  0.98571  1.0000
  H   H22       1.0  0.65976  0.52682  0.48571  1.0000
  H   H23       1.0  0.15975  0.97318  0.51429  1.0000
  H   H24       1.0  0.34024  0.02682  0.01429  1.0000
  H   H25       1.0  0.14351  0.67480  0.01253  1.0000
  H   H26       1.0  0.35649  0.32520  0.51253  1.0000
  H   H27       1.0  0.85649  0.17480  0.48747  1.0000
  H   H28       1.0  0.64350  0.82520  0.98747  1.0000
  H   H29       1.0  0.07221  0.78491  0.11362  1.0000
  H   H30       1.0  0.42780  0.21510  0.61362  1.0000
  H   H31       1.0  0.92780  0.28490  0.38638  1.0000
  H   H32       1.0  0.57220  0.71510  0.88638  1.0000
  C   C1        1.0  0.40426  0.48605  0.17539  1.0000
  C   C2        1.0  0.09574  0.51396  0.67539  1.0000
  C   C3        1.0  0.59574  0.98604  0.32461  1.0000
  C   C4        1.0  0.90425  0.01396  0.82461  1.0000
  C   C5        1.0  0.60089  0.54030  0.12745  1.0000
  C   C6        1.0  0.89910  0.45971  0.62745  1.0000
  C   C7        1.0  0.39911  0.04029  0.37255  1.0000
  C   C8        1.0  0.10089  0.95971  0.87254  1.0000
  C   C9        1.0  0.62691  0.47501  0.07177  1.0000
  C   C10       1.0  0.87309  0.52499  0.57177  1.0000
  C   C11       1.0  0.37309  0.97500  0.42823  1.0000
  C   C12       1.0  0.12691  0.02500  0.92823  1.0000
  C   C13       1.0  0.82050  0.52268  0.02939  1.0000
  C   C14       1.0  0.67950  0.47732  0.52939  1.0000
  C   C15       1.0  0.17950  0.02268  0.47061  1.0000
  C   C16       1.0  0.32050  0.97732  0.97061  1.0000
  C   C17       1.0  0.98756  0.63463  0.04403  1.0000
  C   C18       1.0  0.51244  0.36537  0.54403  1.0000
  C   C19       1.0  0.01245  0.13463  0.45597  1.0000
  C   C20       1.0  0.48755  0.86537  0.95597  1.0000
  C   C21       1.0  0.95083  0.69589  0.10003  1.0000
  C   C22       1.0  0.54917  0.30411  0.60003  1.0000
  C   C23       1.0  0.04918  0.19588  0.39997  1.0000
  C   C24       1.0  0.45082  0.80411  0.89997  1.0000
  C   C25       1.0  0.04051  0.59320  0.33096  1.0000
  C   C26       1.0  0.45951  0.40680  0.83096  1.0000
  C   C27       1.0  0.95952  0.09320  0.16904  1.0000
  C   C28       1.0  0.54048  0.90680  0.66904  1.0000
  C   C29       1.0  0.21160  0.59864  0.39144  1.0000
  C   C30       1.0  0.28841  0.40136  0.89143  1.0000
  C   C31       1.0  0.78842  0.09864  0.10857  1.0000
  C   C32       1.0  0.71158  0.90136  0.60857  1.0000
  N   N1        1.0  0.75969  0.65085  0.14069  1.0000
  N   N2        1.0  0.74031  0.34915  0.64069  1.0000
  N   N3        1.0  0.24032  0.15084  0.35931  1.0000
  N   N4        1.0  0.25968  0.84915  0.85931  1.0000
  N   N5        1.0  0.55794  0.40421  0.22057  1.0000
  N   N6        1.0  0.94205  0.59579  0.72057  1.0000
  N   N7        1.0  0.44205  0.90421  0.27943  1.0000
  N   N8        1.0  0.05794  0.09579  0.77943  1.0000
  O   O1        1.0  0.02115  0.70713  0.30551  1.0000
  O   O2        1.0  0.47887  0.29286  0.80551  1.0000
  O   O3        1.0  0.97887  0.20713  0.19449  1.0000
  O   O4        1.0  0.52113  0.79287  0.69449  1.0000
  O   O5        1.0  0.94240  0.48016  0.31595  1.0000
  O   O6        1.0  0.55764  0.51983  0.81595  1.0000
  O   O7        1.0  0.05765  0.98016  0.18406  1.0000
  O   O8        1.0  0.44236  0.01984  0.68405  1.0000
  F   F1        1.0  0.27093  0.47407  0.41493  1.0000
  F   F2        1.0  0.22908  0.52593  0.91493  1.0000
  F   F3        1.0  0.72910  0.97406  0.08507  1.0000
  F   F4        1.0  0.77091  0.02593  0.58507  1.0000
  F   F5        1.0  0.46587  0.66365  0.38472  1.0000
  F   F6        1.0  0.03414  0.33636  0.88472  1.0000
  F   F7        1.0  0.53416  0.16364  0.11528  1.0000
  F   F8        1.0  0.96584  0.83636  0.61528  1.0000
  F   F9        1.0  0.06423  0.66817  0.43507  1.0000
  F   F10       1.0  0.43577  0.33184  0.93508  1.0000
  F   F11       1.0  0.93579  0.16816  0.06493  1.0000
  F   F12       1.0  0.56421  0.83184  0.56493  1.0000
