data_image0
_chemical_formula_structural       Ag4H32C28S4N8O12F12
_chemical_formula_sum              "Ag4 H32 C28 S4 N8 O12 F12"
_cell_length_a       7.63422
_cell_length_b       11.4455
_cell_length_c       12.9628
_cell_angle_alpha    89.9998
_cell_angle_beta     101.619
_cell_angle_gamma    90

_space_group_name_H-M_alt    "P 1"
_space_group_IT_number       1

loop_
  _space_group_symop_operation_xyz
  'x, y, z'

loop_
  _atom_site_type_symbol
  _atom_site_label
  _atom_site_symmetry_multiplicity
  _atom_site_fract_x
  _atom_site_fract_y
  _atom_site_fract_z
  _atom_site_occupancy
  Ag  Ag1       1.0  0.79045  0.21780  0.06542  1.0000
  Ag  Ag2       1.0  0.70955  0.71780  0.93458  1.0000
  Ag  Ag3       1.0  0.20955  0.78220  0.93458  1.0000
  Ag  Ag4       1.0  0.29045  0.28220  0.06542  1.0000
  H   H1        1.0  0.86602  0.66069  0.12156  1.0000
  H   H2        1.0  0.63398  0.16069  0.87844  1.0000
  H   H3        1.0  0.13398  0.33931  0.87844  1.0000
  H   H4        1.0  0.36602  0.83931  0.12156  1.0000
  H   H5        1.0  0.64867  0.65059  0.11661  1.0000
  H   H6        1.0  0.85133  0.15059  0.88339  1.0000
  H   H7        1.0  0.35133  0.34941  0.88339  1.0000
  H   H8        1.0  0.14867  0.84941  0.11661  1.0000
  H   H9        1.0  0.86863  0.46774  0.04221  1.0000
  H   H10       1.0  0.63137  0.96774  0.95779  1.0000
  H   H11       1.0  0.13137  0.53226  0.95779  1.0000
  H   H12       1.0  0.36863  0.03226  0.04221  1.0000
  H   H13       1.0  0.63786  0.45791  0.04047  1.0000
  H   H14       1.0  0.86214  0.95791  0.95953  1.0000
  H   H15       1.0  0.36214  0.54209  0.95953  1.0000
  H   H16       1.0  0.13786  0.04209  0.04047  1.0000
  H   H17       1.0  0.86095  0.18094  0.29596  1.0000
  H   H18       1.0  0.63904  0.68094  0.70404  1.0000
  H   H19       1.0  0.13904  0.81906  0.70404  1.0000
  H   H20       1.0  0.36096  0.31906  0.29596  1.0000
  H   H21       1.0  0.88008  0.29305  0.46373  1.0000
  H   H22       1.0  0.61993  0.79305  0.53628  1.0000
  H   H23       1.0  0.11992  0.70695  0.53627  1.0000
  H   H24       1.0  0.38007  0.20695  0.46373  1.0000
  H   H25       1.0  0.84747  0.51249  0.45239  1.0000
  H   H26       1.0  0.65253  0.01249  0.54762  1.0000
  H   H27       1.0  0.15253  0.48751  0.54761  1.0000
  H   H28       1.0  0.34747  0.98751  0.45238  1.0000
  H   H29       1.0  0.80086  0.60745  0.27705  1.0000
  H   H30       1.0  0.69914  0.10745  0.72295  1.0000
  H   H31       1.0  0.19914  0.39255  0.72295  1.0000
  H   H32       1.0  0.30086  0.89255  0.27705  1.0000
  C   C1        1.0  0.76389  0.49605  0.08360  1.0000
  C   C2        1.0  0.73611  0.99605  0.91640  1.0000
  C   C3        1.0  0.23611  0.50395  0.91640  1.0000
  C   C4        1.0  0.26389  0.00395  0.08360  1.0000
  C   C5        1.0  0.80170  0.44500  0.19338  1.0000
  C   C6        1.0  0.69830  0.94500  0.80662  1.0000
  C   C7        1.0  0.19830  0.55500  0.80662  1.0000
  C   C8        1.0  0.30170  0.05500  0.19338  1.0000
  C   C9        1.0  0.84719  0.27560  0.29598  1.0000
  C   C10       1.0  0.65281  0.77560  0.70402  1.0000
  C   C11       1.0  0.15281  0.72440  0.70402  1.0000
  C   C12       1.0  0.34719  0.22440  0.29598  1.0000
  C   C13       1.0  0.85862  0.33873  0.38855  1.0000
  C   C14       1.0  0.64138  0.83873  0.61145  1.0000
  C   C15       1.0  0.14138  0.66127  0.61145  1.0000
  C   C16       1.0  0.35862  0.16127  0.38855  1.0000
  C   C17       1.0  0.84150  0.45982  0.38189  1.0000
  C   C18       1.0  0.65850  0.95982  0.61811  1.0000
  C   C19       1.0  0.15850  0.54018  0.61811  1.0000
  C   C20       1.0  0.34150  0.04018  0.38189  1.0000
  C   C21       1.0  0.81515  0.51316  0.28371  1.0000
  C   C22       1.0  0.68485  0.01316  0.71629  1.0000
  C   C23       1.0  0.18485  0.48684  0.71629  1.0000
  C   C24       1.0  0.31515  0.98684  0.28371  1.0000
  C   C25       1.0  0.82765  0.90319  0.34282  1.0000
  C   C26       1.0  0.67235  0.40319  0.65718  1.0000
  C   C27       1.0  0.17235  0.09681  0.65718  1.0000
  C   C28       1.0  0.32765  0.59681  0.34282  1.0000
  S   S1        1.0  0.82986  0.91907  0.19945  1.0000
  S   S2        1.0  0.67014  0.41907  0.80055  1.0000
  S   S3        1.0  0.17015  0.08093  0.80055  1.0000
  S   S4        1.0  0.32986  0.58093  0.19945  1.0000
  N   N1        1.0  0.81822  0.32741  0.20037  1.0000
  N   N2        1.0  0.68178  0.82741  0.79963  1.0000
  N   N3        1.0  0.18178  0.67259  0.79963  1.0000
  N   N4        1.0  0.31822  0.17259  0.20037  1.0000
  N   N5        1.0  0.75015  0.62402  0.08010  1.0000
  N   N6        1.0  0.74985  0.12403  0.91990  1.0000
  N   N7        1.0  0.24985  0.37597  0.91990  1.0000
  N   N8        1.0  0.25015  0.87597  0.08010  1.0000
  O   O1        1.0  0.94759  0.82371  0.18090  1.0000
  O   O2        1.0  0.55241  0.32371  0.81910  1.0000
  O   O3        1.0  0.05241  0.17630  0.81910  1.0000
  O   O4        1.0  0.44759  0.67629  0.18090  1.0000
  O   O5        1.0  0.90577  0.03535  0.19342  1.0000
  O   O6        1.0  0.59423  0.53535  0.80658  1.0000
  O   O7        1.0  0.09423  0.96465  0.80659  1.0000
  O   O8        1.0  0.40577  0.46465  0.19342  1.0000
  O   O9        1.0  0.64343  0.90610  0.14790  1.0000
  O   O10       1.0  0.85657  0.40609  0.85210  1.0000
  O   O11       1.0  0.35657  0.09390  0.85210  1.0000
  O   O12       1.0  0.14343  0.59390  0.14790  1.0000
  F   F1        1.0  0.73977  0.80451  0.36155  1.0000
  F   F2        1.0  0.76023  0.30451  0.63845  1.0000
  F   F3        1.0  0.26023  0.19549  0.63845  1.0000
  F   F4        1.0  0.23977  0.69549  0.36155  1.0000
  F   F5        1.0  0.74377  0.99616  0.37720  1.0000
  F   F6        1.0  0.75623  0.49616  0.62280  1.0000
  F   F7        1.0  0.25623  0.00384  0.62280  1.0000
  F   F8        1.0  0.24377  0.50384  0.37720  1.0000
  F   F9        1.0  0.99559  0.89773  0.40238  1.0000
  F   F10       1.0  0.50440  0.39773  0.59762  1.0000
  F   F11       1.0  0.00440  0.10226  0.59762  1.0000
  F   F12       1.0  0.49560  0.60227  0.40238  1.0000
