data_image0
_chemical_formula_structural       Mn4H36C24O18
_chemical_formula_sum              "Mn4 H36 C24 O18"
_cell_length_a       7.55169
_cell_length_b       9.02703
_cell_length_c       11.4845
_cell_angle_alpha    107.628
_cell_angle_beta     109.184
_cell_angle_gamma    89.9962

_space_group_name_H-M_alt    "P 1"
_space_group_IT_number       1

loop_
  _space_group_symop_operation_xyz
  'x, y, z'

loop_
  _atom_site_type_symbol
  _atom_site_label
  _atom_site_symmetry_multiplicity
  _atom_site_fract_x
  _atom_site_fract_y
  _atom_site_fract_z
  _atom_site_occupancy
  Mn  Mn1       1.0  0.81712  0.96124  0.04495  1.0000
  Mn  Mn2       1.0  0.77227  0.53872  0.95510  1.0000
  Mn  Mn3       1.0  0.18288  0.03876  0.95505  1.0000
  Mn  Mn4       1.0  0.22773  0.46127  0.04490  1.0000
  H   H1        1.0  0.23239  0.59096  0.68827  1.0000
  H   H2        1.0  0.54408  0.90905  0.31186  1.0000
  H   H3        1.0  0.76761  0.40904  0.31173  1.0000
  H   H4        1.0  0.45593  0.09095  0.68814  1.0000
  H   H5        1.0  0.45934  0.53709  0.68770  1.0000
  H   H6        1.0  0.77136  0.96286  0.31209  1.0000
  H   H7        1.0  0.54066  0.46291  0.31230  1.0000
  H   H8        1.0  0.22864  0.03714  0.68791  1.0000
  H   H9        1.0  0.09197  0.31337  0.56552  1.0000
  H   H10       1.0  0.52654  0.18685  0.43444  1.0000
  H   H11       1.0  0.90803  0.68663  0.43448  1.0000
  H   H12       1.0  0.47346  0.81315  0.56556  1.0000
  H   H13       1.0  0.31626  0.25576  0.57065  1.0000
  H   H14       1.0  0.74570  0.24418  0.42915  1.0000
  H   H15       1.0  0.68374  0.74424  0.42935  1.0000
  H   H16       1.0  0.25430  0.75582  0.57085  1.0000
  H   H17       1.0  0.12642  0.49054  0.43694  1.0000
  H   H18       1.0  0.68941  0.00958  0.56292  1.0000
  H   H19       1.0  0.87358  0.50946  0.56306  1.0000
  H   H20       1.0  0.31060  0.99043  0.43707  1.0000
  H   H21       1.0  0.34572  0.42386  0.43950  1.0000
  H   H22       1.0  0.90618  0.07605  0.56033  1.0000
  H   H23       1.0  0.65429  0.57614  0.56050  1.0000
  H   H24       1.0  0.09382  0.92395  0.43967  1.0000
  H   H25       1.0  0.95918  0.22442  0.30679  1.0000
  H   H26       1.0  0.65256  0.27560  0.69327  1.0000
  H   H27       1.0  0.04083  0.77558  0.69321  1.0000
  H   H28       1.0  0.34744  0.72440  0.30673  1.0000
  H   H29       1.0  0.17078  0.14177  0.32735  1.0000
  H   H30       1.0  0.84347  0.35830  0.67258  1.0000
  H   H31       1.0  0.82923  0.85823  0.67265  1.0000
  H   H32       1.0  0.15653  0.64170  0.32742  1.0000
  H   H33       1.0  0.48568  0.78837  0.94144  1.0000
  H   H34       1.0  0.54415  0.71161  0.05862  1.0000
  H   H35       1.0  0.51432  0.21163  0.05856  1.0000
  H   H36       1.0  0.45585  0.28839  0.94138  1.0000
  C   C1        1.0  0.54311  0.04604  0.18990  1.0000
  C   C2        1.0  0.35352  0.45391  0.81013  1.0000
  C   C3        1.0  0.45689  0.95396  0.81010  1.0000
  C   C4        1.0  0.64647  0.54609  0.18987  1.0000
  C   C5        1.0  0.32236  0.49555  0.68748  1.0000
  C   C6        1.0  0.63468  0.00442  0.31249  1.0000
  C   C7        1.0  0.67764  0.50445  0.31252  1.0000
  C   C8        1.0  0.36533  0.99558  0.68751  1.0000
  C   C9        1.0  0.22995  0.35353  0.56586  1.0000
  C   C10       1.0  0.66413  0.14654  0.43405  1.0000
  C   C11       1.0  0.77005  0.64647  0.43414  1.0000
  C   C12       1.0  0.33587  0.85346  0.56595  1.0000
  C   C13       1.0  0.20644  0.38899  0.44009  1.0000
  C   C14       1.0  0.76638  0.11109  0.55981  1.0000
  C   C15       1.0  0.79356  0.61101  0.55991  1.0000
  C   C16       1.0  0.23362  0.88891  0.44019  1.0000
  C   C17       1.0  0.10804  0.25004  0.31937  1.0000
  C   C18       1.0  0.78880  0.25005  0.68061  1.0000
  C   C19       1.0  0.89197  0.74996  0.68063  1.0000
  C   C20       1.0  0.21120  0.74995  0.31939  1.0000
  C   C21       1.0  0.11439  0.26276  0.19265  1.0000
  C   C22       1.0  0.92183  0.23726  0.80724  1.0000
  C   C23       1.0  0.88561  0.73724  0.80735  1.0000
  C   C24       1.0  0.07817  0.76274  0.19276  1.0000
  O   O1        1.0  0.36557  0.02120  0.13665  1.0000
  O   O2        1.0  0.22931  0.47880  0.86347  1.0000
  O   O3        1.0  0.63444  0.97880  0.86335  1.0000
  O   O4        1.0  0.77069  0.52120  0.13653  1.0000
  O   O5        1.0  0.59351  0.75002  0.00007  1.0000
  O   O6        1.0  0.40649  0.24998  0.99993  1.0000
  O   O7        1.0  0.65094  0.10990  0.14683  1.0000
  O   O8        1.0  0.50441  0.38999  0.85306  1.0000
  O   O9        1.0  0.34906  0.89010  0.85316  1.0000
  O   O10       1.0  0.49559  0.61001  0.14694  1.0000
  O   O11       1.0  0.01973  0.12346  0.80563  1.0000
  O   O12       1.0  0.21392  0.37642  0.19413  1.0000
  O   O13       1.0  0.98028  0.87654  0.19437  1.0000
  O   O14       1.0  0.78608  0.62358  0.80587  1.0000
  O   O15       1.0  0.02341  0.15132  0.08723  1.0000
  O   O16       1.0  0.93638  0.34866  0.91275  1.0000
  O   O17       1.0  0.97659  0.84868  0.91277  1.0000
  O   O18       1.0  0.06361  0.65134  0.08725  1.0000
