data_image0
_chemical_formula_structural       MnH8C6N12
_chemical_formula_sum              "Mn1 H8 C6 N12"
_cell_length_a       5.12827
_cell_length_b       6.20351
_cell_length_c       8.66349
_cell_angle_alpha    102.492
_cell_angle_beta     86.189
_cell_angle_gamma    97.8654

_space_group_name_H-M_alt    "P 1"
_space_group_IT_number       1

loop_
  _space_group_symop_operation_xyz
  'x, y, z'

loop_
  _atom_site_type_symbol
  _atom_site_label
  _atom_site_symmetry_multiplicity
  _atom_site_fract_x
  _atom_site_fract_y
  _atom_site_fract_z
  _atom_site_occupancy
  Mn  Mn1       1.0  0.00859  0.01786  0.00856  1.0000
  H   H1        1.0  0.56904  0.03090  0.31789  1.0000
  H   H2        1.0  0.43077  0.97117  0.68735  1.0000
  H   H3        1.0  0.14887  0.60183  0.16018  1.0000
  H   H4        1.0  0.85890  0.40902  0.84179  1.0000
  H   H5        1.0  0.99249  0.32731  0.34004  1.0000
  H   H6        1.0  0.00899  0.67108  0.65533  1.0000
  H   H7        1.0  0.71484  0.38479  0.47445  1.0000
  H   H8        1.0  0.28664  0.61153  0.52189  1.0000
  C   C1        1.0  0.69669  0.90280  0.30792  1.0000
  C   C2        1.0  0.30351  0.09927  0.69542  1.0000
  C   C3        1.0  0.99384  0.68950  0.22593  1.0000
  C   C4        1.0  0.01081  0.31737  0.77618  1.0000
  C   C5        1.0  0.90678  0.45391  0.43013  1.0000
  C   C6        1.0  0.09418  0.54330  0.56613  1.0000
  N   N1        1.0  0.86294  0.63088  0.35299  1.0000
  N   N2        1.0  0.13614  0.36752  0.64499  1.0000
  N   N3        1.0  0.67335  0.76558  0.40757  1.0000
  N   N4        1.0  0.32271  0.22960  0.59111  1.0000
  N   N5        1.0  0.89347  0.86333  0.19386  1.0000
  N   N6        1.0  0.11224  0.14672  0.81202  1.0000
  N   N7        1.0  0.73448  0.18994  0.06313  1.0000
  N   N8        1.0  0.26178  0.79858  0.94318  1.0000
  N   N9        1.0  0.51066  0.21293  0.09466  1.0000
  N   N10       1.0  0.48327  0.77810  0.90209  1.0000
  N   N11       1.0  0.27946  0.23421  0.12468  1.0000
  N   N12       1.0  0.70457  0.75100  0.86052  1.0000
