data_image0
_chemical_formula_structural       CoH8C8S2N8
_chemical_formula_sum              "Co1 H8 C8 S2 N8"
_cell_length_a       5.52444
_cell_length_b       6.32261
_cell_length_c       8.58706
_cell_angle_alpha    101.747
_cell_angle_beta     100.899
_cell_angle_gamma    93.3313

_space_group_name_H-M_alt    "P 1"
_space_group_IT_number       1

loop_
  _space_group_symop_operation_xyz
  'x, y, z'

loop_
  _atom_site_type_symbol
  _atom_site_label
  _atom_site_symmetry_multiplicity
  _atom_site_fract_x
  _atom_site_fract_y
  _atom_site_fract_z
  _atom_site_occupancy
  Co  Co1       1.0  0.99999  0.00000  0.00000  1.0000
  H   H1        1.0  0.56478  0.97944  0.68678  1.0000
  H   H2        1.0  0.43522  0.02057  0.31322  1.0000
  H   H3        1.0  0.28864  0.30146  0.81333  1.0000
  H   H4        1.0  0.71136  0.69855  0.18667  1.0000
  H   H5        1.0  0.07858  0.30375  0.38908  1.0000
  H   H6        1.0  0.92143  0.69624  0.61091  1.0000
  H   H7        1.0  0.27214  0.46836  0.56769  1.0000
  H   H8        1.0  0.72786  0.53163  0.43230  1.0000
  C   C1        1.0  0.73040  0.07889  0.68550  1.0000
  C   C2        1.0  0.26960  0.92111  0.31450  1.0000
  C   C3        1.0  0.10061  0.23761  0.75194  1.0000
  C   C4        1.0  0.89939  0.76239  0.24806  1.0000
  C   C5        1.0  0.07997  0.40658  0.50874  1.0000
  C   C6        1.0  0.92004  0.59340  0.49126  1.0000
  C   C7        1.0  0.58198  0.24268  0.10450  1.0000
  C   C8        1.0  0.41803  0.75732  0.89551  1.0000
  S   S1        1.0  0.33479  0.35196  0.14382  1.0000
  S   S2        1.0  0.66521  0.64806  0.85619  1.0000
  N   N1        1.0  0.98618  0.27583  0.60925  1.0000
  N   N2        1.0  0.01382  0.72416  0.39075  1.0000
  N   N3        1.0  0.75087  0.17554  0.56458  1.0000
  N   N4        1.0  0.24913  0.82445  0.43541  1.0000
  N   N5        1.0  0.94220  0.11216  0.80333  1.0000
  N   N6        1.0  0.05779  0.88785  0.19667  1.0000
  N   N7        1.0  0.75740  0.15761  0.07360  1.0000
  N   N8        1.0  0.24259  0.84240  0.92641  1.0000
