data_image0
_chemical_formula_structural       Li4H16C16I4O20
_chemical_formula_sum              "Li4 H16 C16 I4 O20"
_cell_length_a       6.60984
_cell_length_b       7.4981
_cell_length_c       15.258
_cell_angle_alpha    100.774
_cell_angle_beta     89.9997
_cell_angle_gamma    89.9989

_space_group_name_H-M_alt    "P 1"
_space_group_IT_number       1

loop_
  _space_group_symop_operation_xyz
  'x, y, z'

loop_
  _atom_site_type_symbol
  _atom_site_label
  _atom_site_symmetry_multiplicity
  _atom_site_fract_x
  _atom_site_fract_y
  _atom_site_fract_z
  _atom_site_occupancy
  Li  Li1       1.0  0.96400  0.68135  0.53694  1.0000
  Li  Li2       1.0  0.46401  0.81865  0.96306  1.0000
  Li  Li3       1.0  0.03599  0.31865  0.46306  1.0000
  Li  Li4       1.0  0.53599  0.18135  0.03694  1.0000
  H   H1        1.0  0.08239  0.42991  0.30164  1.0000
  H   H2        1.0  0.58238  0.07009  0.19836  1.0000
  H   H3        1.0  0.91760  0.57010  0.69835  1.0000
  H   H4        1.0  0.41758  0.92990  0.80164  1.0000
  H   H5        1.0  0.09446  0.30814  0.06682  1.0000
  H   H6        1.0  0.59448  0.19187  0.43319  1.0000
  H   H7        1.0  0.90554  0.69187  0.93318  1.0000
  H   H8        1.0  0.40552  0.80812  0.56682  1.0000
  H   H9        1.0  0.68326  0.82853  0.46501  1.0000
  H   H10       1.0  0.18327  0.67147  0.03499  1.0000
  H   H11       1.0  0.31676  0.17148  0.53499  1.0000
  H   H12       1.0  0.81675  0.32852  0.96501  1.0000
  H   H13       1.0  0.80250  0.98078  0.52840  1.0000
  H   H14       1.0  0.30253  0.51922  0.97161  1.0000
  H   H15       1.0  0.19750  0.01923  0.47161  1.0000
  H   H16       1.0  0.69751  0.48078  0.02840  1.0000
  C   C1        1.0  0.31980  0.61667  0.42241  1.0000
  C   C2        1.0  0.81980  0.88332  0.07759  1.0000
  C   C3        1.0  0.68021  0.38332  0.57759  1.0000
  C   C4        1.0  0.18021  0.11668  0.92241  1.0000
  C   C5        1.0  0.37317  0.53588  0.32652  1.0000
  C   C6        1.0  0.87317  0.96411  0.17348  1.0000
  C   C7        1.0  0.62684  0.46411  0.67348  1.0000
  C   C8        1.0  0.12682  0.03589  0.82652  1.0000
  C   C9        1.0  0.23099  0.44490  0.27274  1.0000
  C   C10       1.0  0.73100  0.05510  0.22727  1.0000
  C   C11       1.0  0.76901  0.55510  0.72726  1.0000
  C   C12       1.0  0.26898  0.94489  0.77274  1.0000
  C   C13       1.0  0.25072  0.36629  0.17705  1.0000
  C   C14       1.0  0.75073  0.13370  0.32295  1.0000
  C   C15       1.0  0.74927  0.63371  0.82295  1.0000
  C   C16       1.0  0.24925  0.86629  0.67705  1.0000
  I   I1        1.0  0.66160  0.59539  0.28247  1.0000
  I   I2        1.0  0.16161  0.90459  0.21753  1.0000
  I   I3        1.0  0.33840  0.40458  0.71753  1.0000
  I   I4        1.0  0.83838  0.09543  0.78248  1.0000
  O   O1        1.0  0.42059  0.75233  0.46247  1.0000
  O   O2        1.0  0.92061  0.74767  0.03753  1.0000
  O   O3        1.0  0.57940  0.24766  0.53753  1.0000
  O   O4        1.0  0.07941  0.25233  0.96247  1.0000
  O   O5        1.0  0.17191  0.54606  0.45636  1.0000
  O   O6        1.0  0.67190  0.95392  0.04365  1.0000
  O   O7        1.0  0.82810  0.45394  0.54364  1.0000
  O   O8        1.0  0.32811  0.04607  0.95635  1.0000
  O   O9        1.0  0.07540  0.35683  0.13427  1.0000
  O   O10       1.0  0.57542  0.14319  0.36573  1.0000
  O   O11       1.0  0.92459  0.64319  0.86572  1.0000
  O   O12       1.0  0.42457  0.85680  0.63427  1.0000
  O   O13       1.0  0.41378  0.31335  0.14147  1.0000
  O   O14       1.0  0.91380  0.18663  0.35852  1.0000
  O   O15       1.0  0.58622  0.68663  0.85852  1.0000
  O   O16       1.0  0.08618  0.81338  0.64147  1.0000
  O   O17       1.0  0.81925  0.86346  0.48909  1.0000
  O   O18       1.0  0.31927  0.63655  0.01092  1.0000
  O   O19       1.0  0.18076  0.13656  0.51092  1.0000
  O   O20       1.0  0.68076  0.36345  0.98910  1.0000
