data_image0
_chemical_formula_structural       Cu2H24C14N4O6
_chemical_formula_sum              "Cu2 H24 C14 N4 O6"
_cell_length_a       5.27031
_cell_length_b       9.30761
_cell_length_c       10.5189
_cell_angle_alpha    116.248
_cell_angle_beta     91.6726
_cell_angle_gamma    89.9925

_space_group_name_H-M_alt    "P 1"
_space_group_IT_number       1

loop_
  _space_group_symop_operation_xyz
  'x, y, z'

loop_
  _atom_site_type_symbol
  _atom_site_label
  _atom_site_symmetry_multiplicity
  _atom_site_fract_x
  _atom_site_fract_y
  _atom_site_fract_z
  _atom_site_occupancy
  Cu  Cu1       1.0  0.06983  0.03488  0.61168  1.0000
  Cu  Cu2       1.0  0.93016  0.42341  0.38841  1.0000
  H   H1        1.0  0.12584  0.33411  0.69159  1.0000
  H   H2        1.0  0.87378  0.64277  0.30830  1.0000
  H   H3        1.0  0.04876  0.28367  0.82174  1.0000
  H   H4        1.0  0.95099  0.46211  0.17824  1.0000
  H   H5        1.0  0.47730  0.35459  0.89591  1.0000
  H   H6        1.0  0.52245  0.45879  0.10404  1.0000
  H   H7        1.0  0.55172  0.31155  0.72009  1.0000
  H   H8        1.0  0.44798  0.59174  0.27992  1.0000
  H   H9        1.0  0.60200  0.78483  0.58709  1.0000
  H   H10       1.0  0.39813  0.19781  0.41287  1.0000
  H   H11       1.0  0.60821  0.87421  0.84443  1.0000
  H   H12       1.0  0.39189  0.03001  0.15557  1.0000
  H   H13       1.0  0.14644  0.93528  0.89144  1.0000
  H   H14       1.0  0.85353  0.04396  0.10835  1.0000
  H   H15       1.0  0.25568  0.80176  0.95985  1.0000
  H   H16       1.0  0.74455  0.84215  0.04019  1.0000
  H   H17       1.0  0.07114  0.72728  0.79957  1.0000
  H   H18       1.0  0.92919  0.92805  0.20039  1.0000
  H   H19       1.0  0.62275  0.60787  0.83691  1.0000
  H   H20       1.0  0.37737  0.77125  0.16301  1.0000
  H   H21       1.0  0.73437  0.59364  0.67390  1.0000
  H   H22       1.0  0.26565  0.92005  0.32608  1.0000
  H   H23       1.0  0.42383  0.52600  0.67997  1.0000
  H   H24       1.0  0.57626  0.84605  0.32004  1.0000
  C   C1        1.0  0.43933  0.27028  0.78411  1.0000
  C   C2        1.0  0.56038  0.48639  0.21593  1.0000
  C   C3        1.0  0.53776  0.10556  0.75867  1.0000
  C   C4        1.0  0.46216  0.34712  0.24145  1.0000
  C   C5        1.0  0.42572  0.82013  0.64780  1.0000
  C   C6        1.0  0.57438  0.17242  0.35216  1.0000
  C   C7        1.0  0.20691  0.72244  0.54717  1.0000
  C   C8        1.0  0.79321  0.17539  0.45286  1.0000
  C   C9        1.0  0.46288  0.78558  0.77861  1.0000
  C   C10       1.0  0.53727  0.00714  0.22138  1.0000
  C   C11       1.0  0.22030  0.81473  0.86201  1.0000
  C   C12       1.0  0.77985  0.95297  0.13796  1.0000
  C   C13       1.0  0.56699  0.61876  0.73996  1.0000
  C   C14       1.0  0.43319  0.87895  0.26003  1.0000
  N   N1        1.0  0.17045  0.26466  0.74182  1.0000
  N   N2        1.0  0.82938  0.52307  0.25823  1.0000
  N   N3        1.0  0.37245  0.98729  0.68879  1.0000
  N   N4        1.0  0.62756  0.29866  0.31127  1.0000
  O   O1        1.0  0.03644  0.79552  0.50908  1.0000
  O   O2        1.0  0.96348  0.28664  0.49107  1.0000
  O   O3        1.0  0.20355  0.57171  0.50463  1.0000
  O   O4        1.0  0.79666  0.06711  0.49531  1.0000
  O   O5        1.0  0.76150  0.09527  0.80045  1.0000
  O   O6        1.0  0.23842  0.29510  0.19966  1.0000
