data_image0
_chemical_formula_structural       Fe6Cu4Te2H20C42N4O18
_chemical_formula_sum              "Fe6 Cu4 Te2 H20 C42 N4 O18"
_cell_length_a       10.0491
_cell_length_b       11.0986
_cell_length_c       11.9731
_cell_angle_alpha    75.1771
_cell_angle_beta     75.948
_cell_angle_gamma    76.707

_space_group_name_H-M_alt    "P 1"
_space_group_IT_number       1

loop_
  _space_group_symop_operation_xyz
  'x, y, z'

loop_
  _atom_site_type_symbol
  _atom_site_label
  _atom_site_symmetry_multiplicity
  _atom_site_fract_x
  _atom_site_fract_y
  _atom_site_fract_z
  _atom_site_occupancy
  Fe  Fe1       1.0  0.64975  0.17559  0.24371  1.0000
  Fe  Fe2       1.0  0.35025  0.82441  0.75629  1.0000
  Fe  Fe3       1.0  0.90368  0.20266  0.26742  1.0000
  Fe  Fe4       1.0  0.09632  0.79734  0.73258  1.0000
  Fe  Fe5       1.0  0.68250  0.24001  0.43717  1.0000
  Fe  Fe6       1.0  0.31750  0.75999  0.56284  1.0000
  Cu  Cu1       1.0  0.82477  0.25657  0.07294  1.0000
  Cu  Cu2       1.0  0.17523  0.74343  0.92706  1.0000
  Cu  Cu3       1.0  0.70008  0.38991  0.24200  1.0000
  Cu  Cu4       1.0  0.29992  0.61009  0.75800  1.0000
  Te  Te1       1.0  0.77983  0.02818  0.39272  1.0000
  Te  Te2       1.0  0.22017  0.97182  0.60729  1.0000
  H   H1        1.0  0.08197  0.20358  0.90430  1.0000
  H   H2        1.0  0.91803  0.79642  0.09570  1.0000
  H   H3        1.0  0.17175  0.28034  0.69177  1.0000
  H   H4        1.0  0.82824  0.71966  0.30823  1.0000
  H   H5        1.0  0.76576  0.51487  0.67152  1.0000
  H   H6        1.0  0.23423  0.48513  0.32849  1.0000
  H   H7        1.0  0.69294  0.42988  0.88353  1.0000
  H   H8        1.0  0.30707  0.57012  0.11647  1.0000
  H   H9        1.0  0.13787  0.40441  0.50518  1.0000
  H   H10       1.0  0.86212  0.59558  0.49481  1.0000
  H   H11       1.0  0.80913  0.54919  0.01432  1.0000
  H   H12       1.0  0.19088  0.45081  0.98568  1.0000
  H   H13       1.0  0.74991  0.76813  0.90388  1.0000
  H   H14       1.0  0.25009  0.23187  0.09612  1.0000
  H   H15       1.0  0.41688  0.83340  0.20001  1.0000
  H   H16       1.0  0.58312  0.16660  0.79999  1.0000
  H   H17       1.0  0.49006  0.61245  0.29859  1.0000
  H   H18       1.0  0.50994  0.38755  0.70141  1.0000
  H   H19       1.0  0.61282  0.97534  0.89119  1.0000
  H   H20       1.0  0.38718  0.02466  0.10881  1.0000
  C   C1        1.0  0.49383  0.11694  0.29550  1.0000
  C   C2        1.0  0.50617  0.88306  0.70450  1.0000
  C   C3        1.0  0.72547  0.07561  0.14340  1.0000
  C   C4        1.0  0.27454  0.92439  0.85660  1.0000
  C   C5        1.0  0.56533  0.31859  0.16191  1.0000
  C   C6        1.0  0.43466  0.68141  0.83810  1.0000
  C   C7        1.0  0.02476  0.09465  0.19131  1.0000
  C   C8        1.0  0.97524  0.90534  0.80868  1.0000
  C   C9        1.0  0.93737  0.35177  0.18033  1.0000
  C   C10       1.0  0.06263  0.64822  0.81968  1.0000
  C   C11       1.0  0.00402  0.20913  0.36537  1.0000
  C   C12       1.0  0.99599  0.79087  0.63463  1.0000
  C   C13       1.0  0.67098  0.40542  0.42325  1.0000
  C   C14       1.0  0.32903  0.59459  0.57674  1.0000
  C   C15       1.0  0.75145  0.20067  0.56527  1.0000
  C   C16       1.0  0.24855  0.79933  0.43473  1.0000
  C   C17       1.0  0.50982  0.22574  0.50399  1.0000
  C   C18       1.0  0.49018  0.77428  0.49601  1.0000
  C   C19       1.0  0.01529  0.27292  0.84987  1.0000
  C   C20       1.0  0.98471  0.72708  0.15012  1.0000
  C   C21       1.0  0.06462  0.31595  0.73086  1.0000
  C   C22       1.0  0.93537  0.68405  0.26913  1.0000
  C   C23       1.0  0.97785  0.40652  0.66131  1.0000
  C   C24       1.0  0.02215  0.59348  0.33869  1.0000
  C   C25       1.0  0.84066  0.44666  0.71896  1.0000
  C   C26       1.0  0.15933  0.55334  0.28104  1.0000
  C   C27       1.0  0.79837  0.39900  0.83806  1.0000
  C   C28       1.0  0.20162  0.60100  0.16195  1.0000
  C   C29       1.0  0.03320  0.45257  0.53718  1.0000
  C   C30       1.0  0.96678  0.54743  0.46282  1.0000
  C   C31       1.0  0.72313  0.61478  0.05308  1.0000
  C   C32       1.0  0.27688  0.38522  0.94691  1.0000
  C   C33       1.0  0.68992  0.73825  0.99180  1.0000
  C   C34       1.0  0.31008  0.26175  0.00820  1.0000
  C   C35       1.0  0.57974  0.82347  0.04261  1.0000
  C   C36       1.0  0.42026  0.17653  0.95738  1.0000
  C   C37       1.0  0.50583  0.77505  0.15531  1.0000
  C   C38       1.0  0.49417  0.22495  0.84469  1.0000
  C   C39       1.0  0.54538  0.65057  0.21101  1.0000
  C   C40       1.0  0.45462  0.34943  0.78899  1.0000
  C   C41       1.0  0.54860  0.95373  0.97894  1.0000
  C   C42       1.0  0.45140  0.04627  0.02105  1.0000
  N   N1        1.0  0.88390  0.31364  0.90456  1.0000
  N   N2        1.0  0.11609  0.68636  0.09545  1.0000
  N   N3        1.0  0.65375  0.57011  0.16212  1.0000
  N   N4        1.0  0.34626  0.42989  0.83787  1.0000
  O   O1        1.0  0.38911  0.07830  0.32148  1.0000
  O   O2        1.0  0.61089  0.92170  0.67851  1.0000
  O   O3        1.0  0.77112  0.99648  0.08853  1.0000
  O   O4        1.0  0.22888  0.00352  0.91148  1.0000
  O   O5        1.0  0.49111  0.39374  0.10439  1.0000
  O   O6        1.0  0.50889  0.60626  0.89561  1.0000
  O   O7        1.0  0.10849  0.02087  0.14579  1.0000
  O   O8        1.0  0.89150  0.97912  0.85421  1.0000
  O   O9        1.0  0.98986  0.44050  0.12869  1.0000
  O   O10       1.0  0.01016  0.55950  0.87130  1.0000
  O   O11       1.0  0.07664  0.21791  0.42458  1.0000
  O   O12       1.0  0.92336  0.78209  0.57541  1.0000
  O   O13       1.0  0.66326  0.50507  0.44511  1.0000
  O   O14       1.0  0.33676  0.49493  0.55488  1.0000
  O   O15       1.0  0.79445  0.17728  0.65228  1.0000
  O   O16       1.0  0.20556  0.82273  0.34772  1.0000
  O   O17       1.0  0.39575  0.21505  0.55249  1.0000
  O   O18       1.0  0.60425  0.78496  0.44751  1.0000
