data_image0
_chemical_formula_structural       K4In4H44C36Br12
_chemical_formula_sum              "K4 In4 H44 C36 Br12"
_cell_length_a       8.79502
_cell_length_b       10.1654
_cell_length_c       15.9967
_cell_angle_alpha    89.9996
_cell_angle_beta     99.173
_cell_angle_gamma    90.0006

_space_group_name_H-M_alt    "P 1"
_space_group_IT_number       1

loop_
  _space_group_symop_operation_xyz
  'x, y, z'

loop_
  _atom_site_type_symbol
  _atom_site_label
  _atom_site_symmetry_multiplicity
  _atom_site_fract_x
  _atom_site_fract_y
  _atom_site_fract_z
  _atom_site_occupancy
  K   K1        1.0  0.25474  0.85497  0.42401  1.0000
  K   K2        1.0  0.24525  0.35496  0.57598  1.0000
  K   K3        1.0  0.74527  0.14502  0.57599  1.0000
  K   K4        1.0  0.75473  0.64504  0.42401  1.0000
  In  In1       1.0  0.79262  0.05740  0.31280  1.0000
  In  In2       1.0  0.70738  0.55739  0.68720  1.0000
  In  In3       1.0  0.20737  0.94260  0.68721  1.0000
  In  In4       1.0  0.29262  0.44261  0.31280  1.0000
  H   H1        1.0  0.54449  0.46278  0.13554  1.0000
  H   H2        1.0  0.95551  0.96278  0.86446  1.0000
  H   H3        1.0  0.45550  0.53722  0.86446  1.0000
  H   H4        1.0  0.04449  0.03722  0.13554  1.0000
  H   H5        1.0  0.37593  0.08571  0.04077  1.0000
  H   H6        1.0  0.12407  0.58571  0.95923  1.0000
  H   H7        1.0  0.62407  0.91429  0.95923  1.0000
  H   H8        1.0  0.87593  0.41430  0.04077  1.0000
  H   H9        1.0  0.82706  0.32876  0.31400  1.0000
  H   H10       1.0  0.67294  0.82876  0.68600  1.0000
  H   H11       1.0  0.17294  0.67124  0.68600  1.0000
  H   H12       1.0  0.32706  0.17124  0.31400  1.0000
  H   H13       1.0  0.68021  0.45012  0.29545  1.0000
  H   H14       1.0  0.81979  0.95012  0.70455  1.0000
  H   H15       1.0  0.31979  0.54988  0.70455  1.0000
  H   H16       1.0  0.18021  0.04988  0.29545  1.0000
  H   H17       1.0  0.82606  0.44316  0.23080  1.0000
  H   H18       1.0  0.67394  0.94316  0.76921  1.0000
  H   H19       1.0  0.17394  0.55684  0.76920  1.0000
  H   H20       1.0  0.32606  0.05684  0.23080  1.0000
  H   H21       1.0  0.27089  0.27736  0.96871  1.0000
  H   H22       1.0  0.22911  0.77736  0.03129  1.0000
  H   H23       1.0  0.72911  0.72264  0.03128  1.0000
  H   H24       1.0  0.77089  0.22264  0.96871  1.0000
  H   H25       1.0  0.39999  0.41252  0.97129  1.0000
  H   H26       1.0  0.10001  0.91252  0.02871  1.0000
  H   H27       1.0  0.60001  0.58748  0.02871  1.0000
  H   H28       1.0  0.89999  0.08748  0.97129  1.0000
  H   H29       1.0  0.25823  0.41095  0.03849  1.0000
  H   H30       1.0  0.24177  0.91096  0.96151  1.0000
  H   H31       1.0  0.74177  0.58905  0.96150  1.0000
  H   H32       1.0  0.75824  0.08904  0.03849  1.0000
  H   H33       1.0  0.62718  0.88990  0.20529  1.0000
  H   H34       1.0  0.87282  0.38990  0.79471  1.0000
  H   H35       1.0  0.37282  0.11010  0.79471  1.0000
  H   H36       1.0  0.12718  0.61010  0.20529  1.0000
  H   H37       1.0  0.57248  0.88919  0.09402  1.0000
  H   H38       1.0  0.92751  0.38918  0.90599  1.0000
  H   H39       1.0  0.42751  0.11081  0.90598  1.0000
  H   H40       1.0  0.07249  0.61082  0.09402  1.0000
  H   H41       1.0  0.43049  0.89910  0.16013  1.0000
  H   H42       1.0  0.06951  0.39910  0.83987  1.0000
  H   H43       1.0  0.56951  0.10089  0.83987  1.0000
  H   H44       1.0  0.93049  0.60089  0.16013  1.0000
  C   C1        1.0  0.65162  0.15710  0.20935  1.0000
  C   C2        1.0  0.84839  0.65710  0.79065  1.0000
  C   C3        1.0  0.34839  0.84290  0.79065  1.0000
  C   C4        1.0  0.15161  0.34290  0.20935  1.0000
  C   C5        1.0  0.64977  0.29541  0.20374  1.0000
  C   C6        1.0  0.85023  0.79541  0.79626  1.0000
  C   C7        1.0  0.35023  0.70459  0.79626  1.0000
  C   C8        1.0  0.14977  0.20459  0.20374  1.0000
  C   C9        1.0  0.54775  0.35535  0.13858  1.0000
  C   C10       1.0  0.95224  0.85534  0.86142  1.0000
  C   C11       1.0  0.45224  0.64465  0.86142  1.0000
  C   C12       1.0  0.04776  0.14465  0.13858  1.0000
  C   C13       1.0  0.44916  0.28183  0.07884  1.0000
  C   C14       1.0  0.05084  0.78182  0.92117  1.0000
  C   C15       1.0  0.55084  0.71817  0.92116  1.0000
  C   C16       1.0  0.94916  0.21817  0.07884  1.0000
  C   C17       1.0  0.45407  0.14501  0.08568  1.0000
  C   C18       1.0  0.04593  0.64501  0.91432  1.0000
  C   C19       1.0  0.54593  0.85499  0.91432  1.0000
  C   C20       1.0  0.95407  0.35499  0.08568  1.0000
  C   C21       1.0  0.55364  0.08074  0.15013  1.0000
  C   C22       1.0  0.94636  0.58074  0.84987  1.0000
  C   C23       1.0  0.44635  0.91926  0.84987  1.0000
  C   C24       1.0  0.05365  0.41926  0.15013  1.0000
  C   C25       1.0  0.75177  0.38294  0.26446  1.0000
  C   C26       1.0  0.74822  0.88294  0.73555  1.0000
  C   C27       1.0  0.24822  0.61706  0.73554  1.0000
  C   C28       1.0  0.25178  0.11706  0.26446  1.0000
  C   C29       1.0  0.33908  0.34869  0.01050  1.0000
  C   C30       1.0  0.16092  0.84869  0.98950  1.0000
  C   C31       1.0  0.66092  0.65130  0.98950  1.0000
  C   C32       1.0  0.83908  0.15131  0.01050  1.0000
  C   C33       1.0  0.54658  0.93284  0.15304  1.0000
  C   C34       1.0  0.95342  0.43284  0.84696  1.0000
  C   C35       1.0  0.45341  0.06715  0.84696  1.0000
  C   C36       1.0  0.04659  0.56716  0.15304  1.0000
  Br  Br1       1.0  0.61826  0.95161  0.41494  1.0000
  Br  Br2       1.0  0.88173  0.45161  0.58506  1.0000
  Br  Br3       1.0  0.38174  0.04839  0.58506  1.0000
  Br  Br4       1.0  0.11826  0.54840  0.41494  1.0000
  Br  Br5       1.0  0.93828  0.84473  0.28034  1.0000
  Br  Br6       1.0  0.56172  0.34472  0.71965  1.0000
  Br  Br7       1.0  0.06173  0.15527  0.71965  1.0000
  Br  Br8       1.0  0.43827  0.65528  0.28034  1.0000
  Br  Br9       1.0  0.99882  0.15962  0.42845  1.0000
  Br  Br10      1.0  0.50118  0.65961  0.57156  1.0000
  Br  Br11      1.0  0.00118  0.84039  0.57155  1.0000
  Br  Br12      1.0  0.49882  0.34040  0.42845  1.0000
