data_image0
_chemical_formula_structural       Cu4H16C12N16
_chemical_formula_sum              "Cu4 H16 C12 N16"
_cell_length_a       5.14666
_cell_length_b       6.45963
_cell_length_c       14.7916
_cell_angle_alpha    90.0007
_cell_angle_beta     90.0008
_cell_angle_gamma    103.701

_space_group_name_H-M_alt    "P 1"
_space_group_IT_number       1

loop_
  _space_group_symop_operation_xyz
  'x, y, z'

loop_
  _atom_site_type_symbol
  _atom_site_label
  _atom_site_symmetry_multiplicity
  _atom_site_fract_x
  _atom_site_fract_y
  _atom_site_fract_z
  _atom_site_occupancy
  Cu  Cu1       1.0  0.11016  0.72587  0.70564  1.0000
  Cu  Cu2       1.0  0.88983  0.77413  0.20563  1.0000
  Cu  Cu3       1.0  0.88982  0.27413  0.29436  1.0000
  Cu  Cu4       1.0  0.11017  0.22587  0.79437  1.0000
  H   H1        1.0  0.57879  0.76953  0.59688  1.0000
  H   H2        1.0  0.42122  0.73048  0.09688  1.0000
  H   H3        1.0  0.42122  0.23048  0.40312  1.0000
  H   H4        1.0  0.57879  0.26952  0.90312  1.0000
  H   H5        1.0  0.66594  0.89540  0.49063  1.0000
  H   H6        1.0  0.33406  0.60460  0.99063  1.0000
  H   H7        1.0  0.33407  0.10461  0.50937  1.0000
  H   H8        1.0  0.66594  0.39539  0.00937  1.0000
  H   H9        1.0  0.88470  0.95992  0.58602  1.0000
  H   H10       1.0  0.11532  0.54009  0.08602  1.0000
  H   H11       1.0  0.11531  0.04009  0.41398  1.0000
  H   H12       1.0  0.88470  0.45991  0.91398  1.0000
  H   H13       1.0  0.28662  0.38782  0.61010  1.0000
  H   H14       1.0  0.71337  0.11217  0.11010  1.0000
  H   H15       1.0  0.71338  0.61218  0.38990  1.0000
  H   H16       1.0  0.28664  0.88782  0.88990  1.0000
  C   C1        1.0  0.88057  0.65930  0.52416  1.0000
  C   C2        1.0  0.11944  0.84070  0.02416  1.0000
  C   C3        1.0  0.11943  0.34071  0.47583  1.0000
  C   C4        1.0  0.88058  0.15929  0.97584  1.0000
  C   C5        1.0  0.74600  0.83072  0.55018  1.0000
  C   C6        1.0  0.25401  0.66928  0.05018  1.0000
  C   C7        1.0  0.25399  0.16929  0.44982  1.0000
  C   C8        1.0  0.74601  0.33071  0.94982  1.0000
  C   C9        1.0  0.15929  0.43871  0.56004  1.0000
  C   C10       1.0  0.84071  0.06128  0.06004  1.0000
  C   C11       1.0  0.84071  0.56129  0.43996  1.0000
  C   C12       1.0  0.15930  0.93871  0.93996  1.0000
  N   N1        1.0  0.33379  0.01589  0.73216  1.0000
  N   N2        1.0  0.66621  0.48411  0.23215  1.0000
  N   N3        1.0  0.66620  0.98410  0.26784  1.0000
  N   N4        1.0  0.33379  0.51590  0.76785  1.0000
  N   N5        1.0  0.56763  0.09676  0.72285  1.0000
  N   N6        1.0  0.43234  0.40323  0.22284  1.0000
  N   N7        1.0  0.43234  0.90323  0.27715  1.0000
  N   N8        1.0  0.56763  0.59676  0.77716  1.0000
  N   N9        1.0  0.04473  0.59728  0.58525  1.0000
  N   N10       1.0  0.95527  0.90272  0.08525  1.0000
  N   N11       1.0  0.95528  0.40273  0.41475  1.0000
  N   N12       1.0  0.04474  0.09728  0.91475  1.0000
  N   N13       1.0  0.79274  0.18903  0.71354  1.0000
  N   N14       1.0  0.20724  0.31096  0.21353  1.0000
  N   N15       1.0  0.20726  0.81097  0.28646  1.0000
  N   N16       1.0  0.79274  0.68904  0.78647  1.0000
