data_image0
_chemical_formula_structural       Ag4H44C28S4Br4N8
_chemical_formula_sum              "Ag4 H44 C28 S4 Br4 N8"
_cell_length_a       6.65358
_cell_length_b       10.7845
_cell_length_c       14.2009
_cell_angle_alpha    89.9997
_cell_angle_beta     90.0006
_cell_angle_gamma    104.434

_space_group_name_H-M_alt    "P 1"
_space_group_IT_number       1

loop_
  _space_group_symop_operation_xyz
  'x, y, z'

loop_
  _atom_site_type_symbol
  _atom_site_label
  _atom_site_symmetry_multiplicity
  _atom_site_fract_x
  _atom_site_fract_y
  _atom_site_fract_z
  _atom_site_occupancy
  Ag  Ag1       1.0  0.74297  0.99469  0.02123  1.0000
  Ag  Ag2       1.0  0.75704  0.50530  0.52122  1.0000
  Ag  Ag3       1.0  0.25703  0.00530  0.97878  1.0000
  Ag  Ag4       1.0  0.24296  0.49470  0.47877  1.0000
  H   H1        1.0  0.13071  0.35289  0.74757  1.0000
  H   H2        1.0  0.36929  0.14711  0.24759  1.0000
  H   H3        1.0  0.86929  0.64712  0.25242  1.0000
  H   H4        1.0  0.63069  0.85289  0.75242  1.0000
  H   H5        1.0  0.77768  0.25015  0.64390  1.0000
  H   H6        1.0  0.72229  0.24986  0.14391  1.0000
  H   H7        1.0  0.22232  0.74986  0.35609  1.0000
  H   H8        1.0  0.27768  0.75014  0.85610  1.0000
  H   H9        1.0  0.07612  0.23998  0.98010  1.0000
  H   H10       1.0  0.42388  0.26002  0.48011  1.0000
  H   H11       1.0  0.92389  0.76002  0.01989  1.0000
  H   H12       1.0  0.57611  0.73998  0.51990  1.0000
  H   H13       1.0  0.96927  0.37281  0.99741  1.0000
  H   H14       1.0  0.53074  0.12719  0.49742  1.0000
  H   H15       1.0  0.03075  0.62719  0.00258  1.0000
  H   H16       1.0  0.46926  0.87281  0.50259  1.0000
  H   H17       1.0  0.24044  0.50236  0.88380  1.0000
  H   H18       1.0  0.25958  0.99765  0.38380  1.0000
  H   H19       1.0  0.75958  0.49765  0.11620  1.0000
  H   H20       1.0  0.74043  0.00236  0.61620  1.0000
  H   H21       1.0  0.35018  0.36988  0.87483  1.0000
  H   H22       1.0  0.14983  0.13012  0.37483  1.0000
  H   H23       1.0  0.64983  0.63012  0.12516  1.0000
  H   H24       1.0  0.85017  0.86988  0.62517  1.0000
  H   H25       1.0  0.39919  0.37564  0.05233  1.0000
  H   H26       1.0  0.10082  0.12436  0.55233  1.0000
  H   H27       1.0  0.60083  0.62436  0.94766  1.0000
  H   H28       1.0  0.89917  0.87564  0.44767  1.0000
  H   H29       1.0  0.31199  0.51789  0.05586  1.0000
  H   H30       1.0  0.18802  0.98210  0.55587  1.0000
  H   H31       1.0  0.68803  0.48211  0.94413  1.0000
  H   H32       1.0  0.81198  0.01789  0.44413  1.0000
  H   H33       1.0  0.41520  0.03712  0.75127  1.0000
  H   H34       1.0  0.08480  0.46288  0.25127  1.0000
  H   H35       1.0  0.58481  0.96288  0.24873  1.0000
  H   H36       1.0  0.91518  0.53712  0.74873  1.0000
  H   H37       1.0  0.39715  0.17849  0.68703  1.0000
  H   H38       1.0  0.10284  0.32150  0.18704  1.0000
  H   H39       1.0  0.60286  0.82150  0.31296  1.0000
  H   H40       1.0  0.89714  0.67849  0.81296  1.0000
  H   H41       1.0  0.32124  0.15817  0.80756  1.0000
  H   H42       1.0  0.17875  0.34183  0.30757  1.0000
  H   H43       1.0  0.67876  0.84183  0.19243  1.0000
  H   H44       1.0  0.82123  0.65817  0.69244  1.0000
  C   C1        1.0  0.71378  0.22755  0.87211  1.0000
  C   C2        1.0  0.78622  0.27245  0.37212  1.0000
  C   C3        1.0  0.28624  0.77245  0.12788  1.0000
  C   C4        1.0  0.21377  0.72755  0.62789  1.0000
  C   C5        1.0  0.97487  0.30623  0.77092  1.0000
  C   C6        1.0  0.52513  0.19378  0.27093  1.0000
  C   C7        1.0  0.02515  0.69379  0.22907  1.0000
  C   C8        1.0  0.47488  0.80623  0.72908  1.0000
  C   C9        1.0  0.80142  0.25428  0.71944  1.0000
  C   C10       1.0  0.69857  0.24573  0.21945  1.0000
  C   C11       1.0  0.19858  0.74572  0.28057  1.0000
  C   C12       1.0  0.30140  0.75427  0.78056  1.0000
  C   C13       1.0  0.05442  0.32802  0.94653  1.0000
  C   C14       1.0  0.44558  0.17197  0.44654  1.0000
  C   C15       1.0  0.94560  0.67198  0.05346  1.0000
  C   C16       1.0  0.55440  0.82803  0.55347  1.0000
  C   C17       1.0  0.26264  0.41800  0.92224  1.0000
  C   C18       1.0  0.23737  0.08200  0.42225  1.0000
  C   C19       1.0  0.73737  0.58200  0.07775  1.0000
  C   C20       1.0  0.76263  0.91800  0.57776  1.0000
  C   C21       1.0  0.39045  0.46070  0.01111  1.0000
  C   C22       1.0  0.10956  0.03929  0.51112  1.0000
  C   C23       1.0  0.60957  0.53930  0.98888  1.0000
  C   C24       1.0  0.89043  0.96070  0.48888  1.0000
  C   C25       1.0  0.43158  0.14085  0.75514  1.0000
  C   C26       1.0  0.06841  0.35914  0.25514  1.0000
  C   C27       1.0  0.56841  0.85914  0.24486  1.0000
  C   C28       1.0  0.93157  0.64086  0.74486  1.0000
  S   S1        1.0  0.58505  0.18734  0.97568  1.0000
  S   S2        1.0  0.91497  0.31265  0.47568  1.0000
  S   S3        1.0  0.41497  0.81265  0.02432  1.0000
  S   S4        1.0  0.08503  0.68735  0.52432  1.0000
  Br  Br1       1.0  0.94242  0.95615  0.85674  1.0000
  Br  Br2       1.0  0.55755  0.54382  0.35672  1.0000
  Br  Br3       1.0  0.05755  0.04382  0.14328  1.0000
  Br  Br4       1.0  0.44246  0.45618  0.64326  1.0000
  N   N1        1.0  0.91888  0.29054  0.86490  1.0000
  N   N2        1.0  0.58113  0.20946  0.36491  1.0000
  N   N3        1.0  0.08112  0.70946  0.13510  1.0000
  N   N4        1.0  0.41886  0.79054  0.63510  1.0000
  N   N5        1.0  0.64169  0.20667  0.78211  1.0000
  N   N6        1.0  0.85831  0.29334  0.28212  1.0000
  N   N7        1.0  0.35833  0.79334  0.21789  1.0000
  N   N8        1.0  0.14168  0.70667  0.71789  1.0000
