data_image0
_chemical_formula_structural       Cu4H32C20N32
_chemical_formula_sum              "Cu4 H32 C20 N32"
_cell_length_a       8.356
_cell_length_b       10.0849
_cell_length_c       11.821
_cell_angle_alpha    90.0004
_cell_angle_beta     106.604
_cell_angle_gamma    90.0005

_space_group_name_H-M_alt    "P 1"
_space_group_IT_number       1

loop_
  _space_group_symop_operation_xyz
  'x, y, z'

loop_
  _atom_site_type_symbol
  _atom_site_label
  _atom_site_symmetry_multiplicity
  _atom_site_fract_x
  _atom_site_fract_y
  _atom_site_fract_z
  _atom_site_occupancy
  Cu  Cu1       1.0  0.87112  0.92929  0.05639  1.0000
  Cu  Cu2       1.0  0.62888  0.42930  0.94361  1.0000
  Cu  Cu3       1.0  0.12887  0.07070  0.94361  1.0000
  Cu  Cu4       1.0  0.37113  0.57070  0.05639  1.0000
  H   H1        1.0  0.94416  0.73285  0.25112  1.0000
  H   H2        1.0  0.55584  0.23285  0.74888  1.0000
  H   H3        1.0  0.05585  0.26715  0.74888  1.0000
  H   H4        1.0  0.44416  0.76716  0.25112  1.0000
  H   H5        1.0  0.76719  0.99503  0.46727  1.0000
  H   H6        1.0  0.73279  0.49504  0.53272  1.0000
  H   H7        1.0  0.23280  0.00496  0.53272  1.0000
  H   H8        1.0  0.26720  0.50497  0.46729  1.0000
  H   H9        1.0  0.75655  0.15790  0.15035  1.0000
  H   H10       1.0  0.74343  0.65791  0.84964  1.0000
  H   H11       1.0  0.24343  0.84209  0.84964  1.0000
  H   H12       1.0  0.25657  0.34209  0.15036  1.0000
  H   H13       1.0  0.77962  0.22085  0.29402  1.0000
  H   H14       1.0  0.72037  0.72086  0.70597  1.0000
  H   H15       1.0  0.22037  0.77914  0.70597  1.0000
  H   H16       1.0  0.27964  0.27914  0.29403  1.0000
  H   H17       1.0  0.59020  0.14258  0.21551  1.0000
  H   H18       1.0  0.90979  0.64260  0.78449  1.0000
  H   H19       1.0  0.40979  0.85741  0.78449  1.0000
  H   H20       1.0  0.09021  0.35741  0.21551  1.0000
  H   H21       1.0  0.96837  0.63327  0.45640  1.0000
  H   H22       1.0  0.53163  0.13327  0.54360  1.0000
  H   H23       1.0  0.03164  0.36673  0.54360  1.0000
  H   H24       1.0  0.46837  0.86673  0.45640  1.0000
  H   H25       1.0  0.80542  0.69249  0.51217  1.0000
  H   H26       1.0  0.69458  0.19249  0.48783  1.0000
  H   H27       1.0  0.19460  0.30751  0.48783  1.0000
  H   H28       1.0  0.30542  0.80751  0.51217  1.0000
  H   H29       1.0  0.00814  0.75860  0.56738  1.0000
  H   H30       1.0  0.49186  0.25860  0.43261  1.0000
  H   H31       1.0  0.99188  0.24140  0.43261  1.0000
  H   H32       1.0  0.50815  0.74141  0.56739  1.0000
  C   C1        1.0  0.79327  0.00843  0.28376  1.0000
  C   C2        1.0  0.70672  0.50844  0.71623  1.0000
  C   C3        1.0  0.20673  0.99156  0.71623  1.0000
  C   C4        1.0  0.29328  0.49156  0.28378  1.0000
  C   C5        1.0  0.80402  0.95152  0.39472  1.0000
  C   C6        1.0  0.69597  0.45154  0.60528  1.0000
  C   C7        1.0  0.19598  0.04847  0.60528  1.0000
  C   C8        1.0  0.30403  0.54847  0.39473  1.0000
  C   C9        1.0  0.87432  0.82623  0.39472  1.0000
  C   C10       1.0  0.62568  0.32624  0.60528  1.0000
  C   C11       1.0  0.12569  0.17377  0.60528  1.0000
  C   C12       1.0  0.37432  0.67378  0.39472  1.0000
  C   C13       1.0  0.72666  0.13920  0.23354  1.0000
  C   C14       1.0  0.77334  0.63921  0.76646  1.0000
  C   C15       1.0  0.27333  0.86080  0.76646  1.0000
  C   C16       1.0  0.22666  0.36079  0.23354  1.0000
  C   C17       1.0  0.91715  0.72171  0.48712  1.0000
  C   C18       1.0  0.58285  0.22172  0.51288  1.0000
  C   C19       1.0  0.08286  0.27828  0.51288  1.0000
  C   C20       1.0  0.41715  0.77829  0.48712  1.0000
  N   N1        1.0  0.90787  0.96871  0.89820  1.0000
  N   N2        1.0  0.59213  0.46872  0.10180  1.0000
  N   N3        1.0  0.09213  0.03128  0.10180  1.0000
  N   N4        1.0  0.40787  0.53129  0.89820  1.0000
  N   N5        1.0  0.79722  0.97722  0.80611  1.0000
  N   N6        1.0  0.70277  0.47722  0.19389  1.0000
  N   N7        1.0  0.20276  0.02278  0.19389  1.0000
  N   N8        1.0  0.29724  0.52278  0.80611  1.0000
  N   N9        1.0  0.69088  0.98315  0.71803  1.0000
  N   N10       1.0  0.80912  0.48314  0.28197  1.0000
  N   N11       1.0  0.30912  0.01686  0.28198  1.0000
  N   N12       1.0  0.19088  0.51686  0.71803  1.0000
  N   N13       1.0  0.63526  0.88448  0.97850  1.0000
  N   N14       1.0  0.86473  0.38448  0.02150  1.0000
  N   N15       1.0  0.36473  0.11552  0.02149  1.0000
  N   N16       1.0  0.13526  0.61552  0.97851  1.0000
  N   N17       1.0  0.46701  0.78598  0.08610  1.0000
  N   N18       1.0  0.03298  0.28597  0.91390  1.0000
  N   N19       1.0  0.53299  0.21403  0.91390  1.0000
  N   N20       1.0  0.96701  0.71402  0.08610  1.0000
  N   N21       1.0  0.55316  0.83476  0.03456  1.0000
  N   N22       1.0  0.94684  0.33475  0.96544  1.0000
  N   N23       1.0  0.44684  0.16525  0.96544  1.0000
  N   N24       1.0  0.05316  0.66524  0.03456  1.0000
  N   N25       1.0  0.85425  0.92155  0.22003  1.0000
  N   N26       1.0  0.64575  0.42155  0.77997  1.0000
  N   N27       1.0  0.14575  0.07844  0.77997  1.0000
  N   N28       1.0  0.35425  0.57844  0.22003  1.0000
  N   N29       1.0  0.90226  0.81255  0.28814  1.0000
  N   N30       1.0  0.59774  0.31255  0.71186  1.0000
  N   N31       1.0  0.09775  0.18745  0.71186  1.0000
  N   N32       1.0  0.40226  0.68745  0.28814  1.0000
