data_image0
_chemical_formula_structural       Cd4H20C28N12
_chemical_formula_sum              "Cd4 H20 C28 N12"
_cell_length_a       8.57518
_cell_length_b       8.57517
_cell_length_c       14.6381
_cell_angle_alpha    90.0006
_cell_angle_beta     90.0009
_cell_angle_gamma    113.814

_space_group_name_H-M_alt    "P 1"
_space_group_IT_number       1

loop_
  _space_group_symop_operation_xyz
  'x, y, z'

loop_
  _atom_site_type_symbol
  _atom_site_label
  _atom_site_symmetry_multiplicity
  _atom_site_fract_x
  _atom_site_fract_y
  _atom_site_fract_z
  _atom_site_occupancy
  Cd  Cd1       1.0  0.50000  1.00000  1.00000  1.0000
  Cd  Cd2       1.0  0.00000  0.50000  0.50000  1.0000
  Cd  Cd3       1.0  0.50001  0.50000  0.75000  1.0000
  Cd  Cd4       1.0  0.49999  0.50000  0.25000  1.0000
  H   H1        1.0  0.19230  0.82568  0.85867  1.0000
  H   H2        1.0  0.17432  0.80770  0.35866  1.0000
  H   H3        1.0  0.82568  0.19230  0.35866  1.0000
  H   H4        1.0  0.80770  0.17433  0.85866  1.0000
  H   H5        1.0  0.80770  0.17432  0.14133  1.0000
  H   H6        1.0  0.82568  0.19231  0.64134  1.0000
  H   H7        1.0  0.17432  0.80770  0.64134  1.0000
  H   H8        1.0  0.19230  0.82568  0.14134  1.0000
  H   H9        1.0  0.87458  0.67181  0.85219  1.0000
  H   H10       1.0  0.32818  0.12542  0.35219  1.0000
  H   H11       1.0  0.67182  0.87458  0.35219  1.0000
  H   H12       1.0  0.12543  0.32818  0.85219  1.0000
  H   H13       1.0  0.12542  0.32819  0.14781  1.0000
  H   H14       1.0  0.67182  0.87458  0.64781  1.0000
  H   H15       1.0  0.32819  0.12542  0.64781  1.0000
  H   H16       1.0  0.87457  0.67181  0.14781  1.0000
  H   H17       1.0  0.71057  0.59433  1.00000  1.0000
  H   H18       1.0  0.40566  0.28942  0.50001  1.0000
  H   H19       1.0  0.59435  0.71058  0.50000  1.0000
  H   H20       1.0  0.28942  0.40566  1.00000  1.0000
  C   C1        1.0  0.46273  0.27828  0.83698  1.0000
  C   C2        1.0  0.72173  0.53728  0.33698  1.0000
  C   C3        1.0  0.27827  0.46273  0.33697  1.0000
  C   C4        1.0  0.53727  0.72172  0.83698  1.0000
  C   C5        1.0  0.53727  0.72172  0.16302  1.0000
  C   C6        1.0  0.27828  0.46273  0.66302  1.0000
  C   C7        1.0  0.72174  0.53727  0.66302  1.0000
  C   C8        1.0  0.46272  0.27826  0.16303  1.0000
  C   C9        1.0  0.11615  0.78807  0.92099  1.0000
  C   C10       1.0  0.21193  0.88385  0.42098  1.0000
  C   C11       1.0  0.78807  0.11615  0.42099  1.0000
  C   C12       1.0  0.88386  0.21194  0.92098  1.0000
  C   C13       1.0  0.88385  0.21193  0.07901  1.0000
  C   C14       1.0  0.78807  0.11616  0.57902  1.0000
  C   C15       1.0  0.21193  0.88386  0.57902  1.0000
  C   C16       1.0  0.11613  0.78806  0.07902  1.0000
  C   C17       1.0  0.93938  0.70261  0.91794  1.0000
  C   C18       1.0  0.29738  0.06062  0.41795  1.0000
  C   C19       1.0  0.70263  0.93940  0.41794  1.0000
  C   C20       1.0  0.06061  0.29737  0.91794  1.0000
  C   C21       1.0  0.06061  0.29739  0.08206  1.0000
  C   C22       1.0  0.70262  0.93940  0.58205  1.0000
  C   C23       1.0  0.29738  0.06060  0.58207  1.0000
  C   C24       1.0  0.93939  0.70262  0.08206  1.0000
  C   C25       1.0  0.84912  0.65963  0.00000  1.0000
  C   C26       1.0  0.34036  0.15088  0.50000  1.0000
  C   C27       1.0  0.65964  0.84912  0.50000  1.0000
  C   C28       1.0  0.15088  0.34037  1.00000  1.0000
  N   N1        1.0  0.45658  0.16769  0.88539  1.0000
  N   N2        1.0  0.83231  0.54342  0.38539  1.0000
  N   N3        1.0  0.16769  0.45659  0.38539  1.0000
  N   N4        1.0  0.54341  0.83231  0.88539  1.0000
  N   N5        1.0  0.54342  0.83231  0.11461  1.0000
  N   N6        1.0  0.16769  0.45658  0.61461  1.0000
  N   N7        1.0  0.83231  0.54342  0.61461  1.0000
  N   N8        1.0  0.45659  0.16768  0.11461  1.0000
  N   N9        1.0  0.20301  0.83076  0.99999  1.0000
  N   N10       1.0  0.16924  0.79700  0.50000  1.0000
  N   N11       1.0  0.83076  0.20300  0.50000  1.0000
  N   N12       1.0  0.79700  0.16925  0.00000  1.0000
