data_image0
_chemical_formula_structural       Co2H30C42N4O10
_chemical_formula_sum              "Co2 H30 C42 N4 O10"
_cell_length_a       10.1002
_cell_length_b       10.2384
_cell_length_c       10.6648
_cell_angle_alpha    71.5326
_cell_angle_beta     66.2909
_cell_angle_gamma    84.5535

_space_group_name_H-M_alt    "P 1"
_space_group_IT_number       1

loop_
  _space_group_symop_operation_xyz
  'x, y, z'

loop_
  _atom_site_type_symbol
  _atom_site_label
  _atom_site_symmetry_multiplicity
  _atom_site_fract_x
  _atom_site_fract_y
  _atom_site_fract_z
  _atom_site_occupancy
  Co  Co1       1.0  0.08445  0.70826  0.34862  1.0000
  Co  Co2       1.0  0.91554  0.29178  0.65136  1.0000
  H   H1        1.0  0.03111  0.59900  0.20458  1.0000
  H   H2        1.0  0.96887  0.40102  0.79544  1.0000
  H   H3        1.0  0.93645  0.51922  0.37940  1.0000
  H   H4        1.0  0.06348  0.48084  0.62064  1.0000
  H   H5        1.0  0.87670  0.81091  0.20766  1.0000
  H   H6        1.0  0.12335  0.18910  0.79233  1.0000
  H   H7        1.0  0.80353  0.04782  0.10239  1.0000
  H   H8        1.0  0.19646  0.95218  0.89765  1.0000
  H   H9        1.0  0.89876  0.25112  0.12961  1.0000
  H   H10       1.0  0.10116  0.74888  0.87048  1.0000
  H   H11       1.0  0.05830  0.20727  0.26750  1.0000
  H   H12       1.0  0.94168  0.79278  0.73255  1.0000
  H   H13       1.0  0.19295  0.14653  0.38855  1.0000
  H   H14       1.0  0.80708  0.85348  0.61151  1.0000
  H   H15       1.0  0.36945  0.05585  0.50358  1.0000
  H   H16       1.0  0.63059  0.94409  0.49649  1.0000
  H   H17       1.0  0.41967  0.80204  0.55634  1.0000
  H   H18       1.0  0.58041  0.19790  0.44359  1.0000
  H   H19       1.0  0.29943  0.65359  0.48379  1.0000
  H   H20       1.0  0.70063  0.34642  0.51608  1.0000
  H   H21       1.0  0.34330  0.38652  0.75579  1.0000
  H   H22       1.0  0.65669  0.61342  0.24424  1.0000
  H   H23       1.0  0.68459  0.67982  0.43547  1.0000
  H   H24       1.0  0.31539  0.32014  0.56454  1.0000
  H   H25       1.0  0.29384  0.58475  0.82848  1.0000
  H   H26       1.0  0.70613  0.41518  0.17153  1.0000
  H   H27       1.0  0.52551  0.72389  0.02455  1.0000
  H   H28       1.0  0.47450  0.27610  0.97544  1.0000
  H   H29       1.0  0.75789  0.67179  0.84600  1.0000
  H   H30       1.0  0.24211  0.32821  0.15398  1.0000
  C   C1        1.0  0.91477  0.90203  0.21686  1.0000
  C   C2        1.0  0.08526  0.09801  0.78316  1.0000
  C   C3        1.0  0.87474  0.03396  0.15958  1.0000
  C   C4        1.0  0.12525  0.96607  0.84045  1.0000
  C   C5        1.0  0.92736  0.14681  0.17531  1.0000
  C   C6        1.0  0.07260  0.85321  0.82474  1.0000
  C   C7        1.0  0.01877  0.12301  0.24841  1.0000
  C   C8        1.0  0.98121  0.87700  0.75164  1.0000
  C   C9        1.0  0.05825  0.98872  0.30056  1.0000
  C   C10       1.0  0.94177  0.01131  0.69947  1.0000
  C   C11       1.0  0.15915  0.94966  0.37096  1.0000
  C   C12       1.0  0.84087  0.05035  0.62904  1.0000
  C   C13       1.0  0.22261  0.03911  0.40778  1.0000
  C   C14       1.0  0.77743  0.96089  0.59225  1.0000
  C   C15       1.0  0.31932  0.98790  0.47316  1.0000
  C   C16       1.0  0.68072  0.01205  0.52687  1.0000
  C   C17       1.0  0.34764  0.84782  0.50222  1.0000
  C   C18       1.0  0.65242  0.15216  0.49775  1.0000
  C   C19       1.0  0.28025  0.76314  0.46416  1.0000
  C   C20       1.0  0.71980  0.23686  0.53577  1.0000
  C   C21       1.0  0.25401  0.67006  0.05440  1.0000
  C   C22       1.0  0.74597  0.32994  0.94556  1.0000
  C   C23       1.0  0.41158  0.43724  0.64342  1.0000
  C   C24       1.0  0.58842  0.56270  0.35658  1.0000
  C   C25       1.0  0.51607  0.53806  0.60962  1.0000
  C   C26       1.0  0.48391  0.46190  0.39041  1.0000
  C   C27       1.0  0.60378  0.60036  0.46439  1.0000
  C   C28       1.0  0.39622  0.39958  0.53560  1.0000
  C   C29       1.0  0.52617  0.58289  0.72403  1.0000
  C   C30       1.0  0.47381  0.41709  0.27598  1.0000
  C   C31       1.0  0.39690  0.60643  0.82958  1.0000
  C   C32       1.0  0.60307  0.39353  0.17043  1.0000
  C   C33       1.0  0.39539  0.65671  0.93749  1.0000
  C   C34       1.0  0.60462  0.34323  0.06250  1.0000
  C   C35       1.0  0.52682  0.68564  0.93968  1.0000
  C   C36       1.0  0.47315  0.31436  0.06035  1.0000
  C   C37       1.0  0.65610  0.65918  0.83798  1.0000
  C   C38       1.0  0.34384  0.34081  0.16202  1.0000
  C   C39       1.0  0.65884  0.60750  0.72971  1.0000
  C   C40       1.0  0.34114  0.39250  0.27025  1.0000
  C   C41       1.0  0.80378  0.57122  0.63277  1.0000
  C   C42       1.0  0.19621  0.42879  0.36720  1.0000
  N   N1        1.0  0.00569  0.87864  0.28562  1.0000
  N   N2        1.0  0.99434  0.12143  0.71439  1.0000
  N   N3        1.0  0.18759  0.81250  0.39941  1.0000
  N   N4        1.0  0.81244  0.18754  0.60055  1.0000
  O   O1        1.0  0.25272  0.74349  0.13101  1.0000
  O   O2        1.0  0.74725  0.25661  0.86888  1.0000
  O   O3        1.0  0.14456  0.60239  0.07024  1.0000
  O   O4        1.0  0.85544  0.39755  0.92975  1.0000
  O   O5        1.0  0.80814  0.45753  0.60321  1.0000
  O   O6        1.0  0.19188  0.54253  0.39668  1.0000
  O   O7        1.0  0.91166  0.65174  0.58919  1.0000
  O   O8        1.0  0.08832  0.34830  0.41078  1.0000
  O   O9        1.0  0.95897  0.61014  0.30602  1.0000
  O   O10       1.0  0.04096  0.38991  0.69396  1.0000
