data_image0
_chemical_formula_structural       Ho4P4H24C8O28
_chemical_formula_sum              "Ho4 P4 H24 C8 O28"
_cell_length_a       6.83263
_cell_length_b       7.61845
_cell_length_c       12.8576
_cell_angle_alpha    90.0003
_cell_angle_beta     89.9991
_cell_angle_gamma    89.999

_space_group_name_H-M_alt    "P 1"
_space_group_IT_number       1

loop_
  _space_group_symop_operation_xyz
  'x, y, z'

loop_
  _atom_site_type_symbol
  _atom_site_label
  _atom_site_symmetry_multiplicity
  _atom_site_fract_x
  _atom_site_fract_y
  _atom_site_fract_z
  _atom_site_occupancy
  Ho  Ho1       1.0  0.74997  0.63706  0.66392  1.0000
  Ho  Ho2       1.0  0.24999  0.13706  0.83608  1.0000
  Ho  Ho3       1.0  0.24999  0.36294  0.33607  1.0000
  Ho  Ho4       1.0  0.75001  0.86295  0.16392  1.0000
  P   P1        1.0  0.75002  0.18730  0.36437  1.0000
  P   P2        1.0  0.25004  0.68731  0.13562  1.0000
  P   P3        1.0  0.25000  0.81269  0.63563  1.0000
  P   P4        1.0  0.75001  0.31269  0.86437  1.0000
  H   H1        1.0  0.87995  0.06061  0.52121  1.0000
  H   H2        1.0  0.12053  0.56047  0.97877  1.0000
  H   H3        1.0  0.37989  0.93940  0.47881  1.0000
  H   H4        1.0  0.62048  0.43951  0.02123  1.0000
  H   H5        1.0  0.12049  0.93951  0.47877  1.0000
  H   H6        1.0  0.87988  0.43941  0.02120  1.0000
  H   H7        1.0  0.62053  0.06048  0.52124  1.0000
  H   H8        1.0  0.37993  0.56059  0.97879  1.0000
  H   H9        1.0  0.87044  0.68243  0.44928  1.0000
  H   H10       1.0  0.12964  0.18237  0.05076  1.0000
  H   H11       1.0  0.37045  0.31757  0.55073  1.0000
  H   H12       1.0  0.62965  0.81763  0.94924  1.0000
  H   H13       1.0  0.12964  0.31764  0.55077  1.0000
  H   H14       1.0  0.87046  0.81757  0.94926  1.0000
  H   H15       1.0  0.62964  0.68237  0.44924  1.0000
  H   H16       1.0  0.37045  0.18243  0.05073  1.0000
  H   H17       1.0  0.86174  0.98269  0.76592  1.0000
  H   H18       1.0  0.13744  0.48200  0.73419  1.0000
  H   H19       1.0  0.36175  0.01731  0.23407  1.0000
  H   H20       1.0  0.63742  0.51805  0.26580  1.0000
  H   H21       1.0  0.13747  0.01798  0.23419  1.0000
  H   H22       1.0  0.86169  0.51726  0.26594  1.0000
  H   H23       1.0  0.63746  0.98202  0.76582  1.0000
  H   H24       1.0  0.36171  0.48270  0.73408  1.0000
  C   C1        1.0  0.75011  0.30103  0.57130  1.0000
  C   C2        1.0  0.25013  0.80100  0.92870  1.0000
  C   C3        1.0  0.25009  0.69899  0.42871  1.0000
  C   C4        1.0  0.75010  0.19900  0.07130  1.0000
  C   C5        1.0  0.75019  0.14015  0.50443  1.0000
  C   C6        1.0  0.25018  0.64015  0.99557  1.0000
  C   C7        1.0  0.25014  0.85983  0.49558  1.0000
  C   C8        1.0  0.75014  0.35985  0.00442  1.0000
  O   O1        1.0  0.91143  0.37231  0.59908  1.0000
  O   O2        1.0  0.08876  0.87227  0.90095  1.0000
  O   O3        1.0  0.41143  0.62769  0.40093  1.0000
  O   O4        1.0  0.58875  0.12776  0.09905  1.0000
  O   O5        1.0  0.08874  0.62774  0.40094  1.0000
  O   O6        1.0  0.91143  0.12771  0.09906  1.0000
  O   O7        1.0  0.58876  0.37225  0.59905  1.0000
  O   O8        1.0  0.41146  0.87231  0.90093  1.0000
  O   O9        1.0  0.75022  0.00687  0.31166  1.0000
  O   O10       1.0  0.25023  0.50687  0.18834  1.0000
  O   O11       1.0  0.25017  0.99312  0.68834  1.0000
  O   O12       1.0  0.75018  0.49313  0.81165  1.0000
  O   O13       1.0  0.93447  0.29484  0.33951  1.0000
  O   O14       1.0  0.06533  0.79447  0.16037  1.0000
  O   O15       1.0  0.43444  0.70516  0.66048  1.0000
  O   O16       1.0  0.56531  0.20552  0.83962  1.0000
  O   O17       1.0  0.06529  0.70554  0.66038  1.0000
  O   O18       1.0  0.93447  0.20518  0.83953  1.0000
  O   O19       1.0  0.56529  0.29445  0.33963  1.0000
  O   O20       1.0  0.43449  0.79483  0.16047  1.0000
  O   O21       1.0  0.75001  0.70596  0.49144  1.0000
  O   O22       1.0  0.25001  0.20596  0.00856  1.0000
  O   O23       1.0  0.25002  0.29404  0.50855  1.0000
  O   O24       1.0  0.75004  0.79404  0.99144  1.0000
  O   O25       1.0  0.74983  0.91635  0.73835  1.0000
  O   O26       1.0  0.24986  0.41635  0.76165  1.0000
  O   O27       1.0  0.24987  0.08365  0.26165  1.0000
  O   O28       1.0  0.74987  0.58366  0.23835  1.0000
