data_image0
_chemical_formula_structural       Yb4P4H24C8O28
_chemical_formula_sum              "Yb4 P4 H24 C8 O28"
_cell_length_a       6.78741
_cell_length_b       6.97563
_cell_length_c       15.2585
_cell_angle_alpha    90
_cell_angle_beta     90.0013
_cell_angle_gamma    90.0003

_space_group_name_H-M_alt    "P 1"
_space_group_IT_number       1

loop_
  _space_group_symop_operation_xyz
  'x, y, z'

loop_
  _atom_site_type_symbol
  _atom_site_label
  _atom_site_symmetry_multiplicity
  _atom_site_fract_x
  _atom_site_fract_y
  _atom_site_fract_z
  _atom_site_occupancy
  Yb  Yb1       1.0  0.75000  0.50463  0.85497  1.0000
  Yb  Yb2       1.0  0.25000  0.00463  0.64503  1.0000
  Yb  Yb3       1.0  0.25001  0.49537  0.14503  1.0000
  Yb  Yb4       1.0  0.74999  0.99538  0.35497  1.0000
  P   P1        1.0  0.25001  0.68743  0.83424  1.0000
  P   P2        1.0  0.75000  0.18744  0.66577  1.0000
  P   P3        1.0  0.75000  0.31256  0.16576  1.0000
  P   P4        1.0  0.24999  0.81256  0.33423  1.0000
  H   H1        1.0  0.86390  0.81817  0.72774  1.0000
  H   H2        1.0  0.13609  0.31817  0.77227  1.0000
  H   H3        1.0  0.36391  0.18183  0.27226  1.0000
  H   H4        1.0  0.63609  0.68182  0.22774  1.0000
  H   H5        1.0  0.13610  0.18183  0.27226  1.0000
  H   H6        1.0  0.86391  0.68182  0.22774  1.0000
  H   H7        1.0  0.63609  0.81817  0.72774  1.0000
  H   H8        1.0  0.36391  0.31818  0.77226  1.0000
  H   H9        1.0  0.87243  0.71999  0.00571  1.0000
  H   H10       1.0  0.12756  0.21998  0.49429  1.0000
  H   H11       1.0  0.37246  0.28001  0.99429  1.0000
  H   H12       1.0  0.62755  0.78001  0.50570  1.0000
  H   H13       1.0  0.12757  0.28001  0.99429  1.0000
  H   H14       1.0  0.87242  0.78002  0.50570  1.0000
  H   H15       1.0  0.62754  0.71999  0.00571  1.0000
  H   H16       1.0  0.37244  0.21999  0.49430  1.0000
  H   H17       1.0  0.38199  0.95218  0.91529  1.0000
  H   H18       1.0  0.61806  0.45216  0.58471  1.0000
  H   H19       1.0  0.88198  0.04783  0.08470  1.0000
  H   H20       1.0  0.11800  0.54784  0.41529  1.0000
  H   H21       1.0  0.61803  0.04782  0.08470  1.0000
  H   H22       1.0  0.38194  0.54784  0.41530  1.0000
  H   H23       1.0  0.11805  0.95217  0.91530  1.0000
  H   H24       1.0  0.88199  0.45216  0.58470  1.0000
  C   C1        1.0  0.24999  0.86319  0.92406  1.0000
  C   C2        1.0  0.75000  0.36318  0.57594  1.0000
  C   C3        1.0  0.75001  0.13681  0.07594  1.0000
  C   C4        1.0  0.25000  0.63682  0.42405  1.0000
  C   C5        1.0  0.25004  0.77105  0.01276  1.0000
  C   C6        1.0  0.74997  0.27103  0.48725  1.0000
  C   C7        1.0  0.74997  0.22896  0.98725  1.0000
  C   C8        1.0  0.25002  0.72897  0.51275  1.0000
  O   O1        1.0  0.75000  0.74765  0.75088  1.0000
  O   O2        1.0  0.25000  0.24765  0.74912  1.0000
  O   O3        1.0  0.25000  0.25235  0.24912  1.0000
  O   O4        1.0  0.75000  0.75235  0.25088  1.0000
  O   O5        1.0  0.75001  0.70567  0.96933  1.0000
  O   O6        1.0  0.24999  0.20567  0.53068  1.0000
  O   O7        1.0  0.24999  0.29433  0.03067  1.0000
  O   O8        1.0  0.75000  0.79433  0.46932  1.0000
  O   O9        1.0  0.43600  0.56441  0.84194  1.0000
  O   O10       1.0  0.56400  0.06441  0.65806  1.0000
  O   O11       1.0  0.93600  0.43558  0.15806  1.0000
  O   O12       1.0  0.06400  0.93560  0.34193  1.0000
  O   O13       1.0  0.56400  0.43559  0.15806  1.0000
  O   O14       1.0  0.43600  0.93559  0.34194  1.0000
  O   O15       1.0  0.06400  0.56442  0.84194  1.0000
  O   O16       1.0  0.93599  0.06440  0.65806  1.0000
  O   O17       1.0  0.25001  0.80508  0.74975  1.0000
  O   O18       1.0  0.75000  0.30509  0.75024  1.0000
  O   O19       1.0  0.75000  0.19491  0.25024  1.0000
  O   O20       1.0  0.24999  0.69491  0.24976  1.0000
  O   O21       1.0  0.41143  0.72569  0.05096  1.0000
  O   O22       1.0  0.58857  0.22568  0.44905  1.0000
  O   O23       1.0  0.91145  0.27432  0.94904  1.0000
  O   O24       1.0  0.08853  0.77433  0.55096  1.0000
  O   O25       1.0  0.58858  0.27431  0.94904  1.0000
  O   O26       1.0  0.41141  0.77432  0.55095  1.0000
  O   O27       1.0  0.08856  0.72568  0.05096  1.0000
  O   O28       1.0  0.91145  0.22568  0.44904  1.0000
