data_image0
_chemical_formula_structural       Zn2H44C28N20
_chemical_formula_sum              "Zn2 H44 C28 N20"
_cell_length_a       8.21588
_cell_length_b       8.2159
_cell_length_c       14.1401
_cell_angle_alpha    74.067
_cell_angle_beta     74.067
_cell_angle_gamma    88.383

_space_group_name_H-M_alt    "P 1"
_space_group_IT_number       1

loop_
  _space_group_symop_operation_xyz
  'x, y, z'

loop_
  _atom_site_type_symbol
  _atom_site_label
  _atom_site_symmetry_multiplicity
  _atom_site_fract_x
  _atom_site_fract_y
  _atom_site_fract_z
  _atom_site_occupancy
  Zn  Zn1       1.0  0.12269  0.87731  0.25000  1.0000
  Zn  Zn2       1.0  0.87732  0.12269  0.75000  1.0000
  H   H1        1.0  0.27708  0.37493  0.52147  1.0000
  H   H2        1.0  0.62507  0.72293  0.97853  1.0000
  H   H3        1.0  0.72292  0.62507  0.47853  1.0000
  H   H4        1.0  0.37493  0.27708  0.02147  1.0000
  H   H5        1.0  0.26590  0.03856  0.37161  1.0000
  H   H6        1.0  0.96144  0.73410  0.12839  1.0000
  H   H7        1.0  0.73410  0.96144  0.62839  1.0000
  H   H8        1.0  0.03856  0.26590  0.87161  1.0000
  H   H9        1.0  0.34873  0.97848  0.47881  1.0000
  H   H10       1.0  0.02152  0.65127  0.02119  1.0000
  H   H11       1.0  0.65127  0.02152  0.52119  1.0000
  H   H12       1.0  0.97848  0.34873  0.97881  1.0000
  H   H13       1.0  0.43147  0.75388  0.58768  1.0000
  H   H14       1.0  0.24612  0.56853  0.91232  1.0000
  H   H15       1.0  0.56853  0.24612  0.41232  1.0000
  H   H16       1.0  0.75388  0.43147  0.08768  1.0000
  H   H17       1.0  0.36634  0.53550  0.64621  1.0000
  H   H18       1.0  0.46450  0.63366  0.85379  1.0000
  H   H19       1.0  0.63366  0.46449  0.35380  1.0000
  H   H20       1.0  0.53550  0.36634  0.14621  1.0000
  H   H21       1.0  0.22081  0.69560  0.66428  1.0000
  H   H22       1.0  0.30440  0.77919  0.83572  1.0000
  H   H23       1.0  0.77919  0.30440  0.33572  1.0000
  H   H24       1.0  0.69560  0.22081  0.16428  1.0000
  H   H25       1.0  0.05530  0.92194  0.59755  1.0000
  H   H26       1.0  0.07806  0.94470  0.90245  1.0000
  H   H27       1.0  0.94470  0.07806  0.40245  1.0000
  H   H28       1.0  0.92194  0.05530  0.09755  1.0000
  H   H29       1.0  0.09863  0.13358  0.52316  1.0000
  H   H30       1.0  0.86642  0.90137  0.97684  1.0000
  H   H31       1.0  0.90137  0.86642  0.47684  1.0000
  H   H32       1.0  0.13358  0.09863  0.02316  1.0000
  H   H33       1.0  0.05142  0.51447  0.30385  1.0000
  H   H34       1.0  0.48553  0.94858  0.19615  1.0000
  H   H35       1.0  0.94858  0.48553  0.69615  1.0000
  H   H36       1.0  0.51447  0.05142  0.80385  1.0000
  H   H37       1.0  0.13979  0.33325  0.36970  1.0000
  H   H38       1.0  0.66675  0.86021  0.13030  1.0000
  H   H39       1.0  0.86021  0.66675  0.63030  1.0000
  H   H40       1.0  0.33325  0.13979  0.86970  1.0000
  H   H41       1.0  0.26899  0.47904  0.25929  1.0000
  H   H42       1.0  0.52096  0.73101  0.24071  1.0000
  H   H43       1.0  0.73102  0.52096  0.74071  1.0000
  H   H44       1.0  0.47904  0.26898  0.75929  1.0000
  C   C1        1.0  0.25602  0.50473  0.48460  1.0000
  C   C2        1.0  0.49527  0.74398  0.01540  1.0000
  C   C3        1.0  0.74398  0.49527  0.51540  1.0000
  C   C4        1.0  0.50473  0.25602  0.98460  1.0000
  C   C5        1.0  0.24123  0.95889  0.45076  1.0000
  C   C6        1.0  0.04111  0.75877  0.04924  1.0000
  C   C7        1.0  0.75877  0.04111  0.54924  1.0000
  C   C8        1.0  0.95889  0.24122  0.95076  1.0000
  C   C9        1.0  0.32682  0.65905  0.60843  1.0000
  C   C10       1.0  0.34095  0.67318  0.89157  1.0000
  C   C11       1.0  0.67318  0.34095  0.39157  1.0000
  C   C12       1.0  0.65905  0.32682  0.10843  1.0000
  C   C13       1.0  0.07767  0.00436  0.51892  1.0000
  C   C14       1.0  0.99564  0.92233  0.98108  1.0000
  C   C15       1.0  0.92233  0.99565  0.48108  1.0000
  C   C16       1.0  0.00436  0.07767  0.01892  1.0000
  C   C17       1.0  0.20362  0.56429  0.39536  1.0000
  C   C18       1.0  0.43571  0.79638  0.10465  1.0000
  C   C19       1.0  0.79638  0.43571  0.60465  1.0000
  C   C20       1.0  0.56429  0.20362  0.89535  1.0000
  C   C21       1.0  0.16372  0.46802  0.32870  1.0000
  C   C22       1.0  0.53198  0.83628  0.17130  1.0000
  C   C23       1.0  0.83628  0.53198  0.67130  1.0000
  C   C24       1.0  0.46802  0.16372  0.82870  1.0000
  C   C25       1.0  0.27710  0.64633  0.51706  1.0000
  C   C26       1.0  0.35367  0.72290  0.98294  1.0000
  C   C27       1.0  0.72290  0.35367  0.48294  1.0000
  C   C28       1.0  0.64633  0.27710  0.01706  1.0000
  N   N1        1.0  0.19371  0.73454  0.37355  1.0000
  N   N2        1.0  0.26546  0.80629  0.12645  1.0000
  N   N3        1.0  0.80629  0.26546  0.62645  1.0000
  N   N4        1.0  0.73454  0.19371  0.87355  1.0000
  N   N5        1.0  0.23937  0.78282  0.44819  1.0000
  N   N6        1.0  0.21718  0.76063  0.05181  1.0000
  N   N7        1.0  0.76063  0.21718  0.55181  1.0000
  N   N8        1.0  0.78282  0.23937  0.94819  1.0000
  N   N9        1.0  0.88092  0.81793  0.27273  1.0000
  N   N10       1.0  0.18207  0.11908  0.22726  1.0000
  N   N11       1.0  0.11908  0.18207  0.72726  1.0000
  N   N12       1.0  0.81793  0.88092  0.77274  1.0000
  N   N13       1.0  0.75989  0.87522  0.32062  1.0000
  N   N14       1.0  0.12478  0.24012  0.17937  1.0000
  N   N15       1.0  0.24012  0.12477  0.67937  1.0000
  N   N16       1.0  0.87522  0.75989  0.82062  1.0000
  N   N17       1.0  0.63705  0.92475  0.36633  1.0000
  N   N18       1.0  0.07525  0.36295  0.13366  1.0000
  N   N19       1.0  0.36295  0.07525  0.63366  1.0000
  N   N20       1.0  0.92475  0.63705  0.86633  1.0000
