data_image0
_chemical_formula_structural       Ag4H8C28I12O8
_chemical_formula_sum              "Ag4 H8 C28 I12 O8"
_cell_length_a       5.76573
_cell_length_b       13.0365
_cell_length_c       14.7856
_cell_angle_alpha    108.272
_cell_angle_beta     90.0001
_cell_angle_gamma    90

_space_group_name_H-M_alt    "P 1"
_space_group_IT_number       1

loop_
  _space_group_symop_operation_xyz
  'x, y, z'

loop_
  _atom_site_type_symbol
  _atom_site_label
  _atom_site_symmetry_multiplicity
  _atom_site_fract_x
  _atom_site_fract_y
  _atom_site_fract_z
  _atom_site_occupancy
  Ag  Ag1       1.0  0.30462  0.04299  0.05635  1.0000
  Ag  Ag2       1.0  0.19538  0.54299  0.55635  1.0000
  Ag  Ag3       1.0  0.69537  0.95701  0.94365  1.0000
  Ag  Ag4       1.0  0.80463  0.45701  0.44365  1.0000
  H   H1        1.0  0.79517  0.43577  0.02656  1.0000
  H   H2        1.0  0.70484  0.93577  0.52656  1.0000
  H   H3        1.0  0.20483  0.56423  0.97344  1.0000
  H   H4        1.0  0.29517  0.06423  0.47344  1.0000
  H   H5        1.0  0.59414  0.60112  0.31759  1.0000
  H   H6        1.0  0.90586  0.10112  0.81759  1.0000
  H   H7        1.0  0.40586  0.39888  0.68241  1.0000
  H   H8        1.0  0.09414  0.89888  0.18241  1.0000
  C   C1        1.0  0.39811  0.45903  0.24527  1.0000
  C   C2        1.0  0.10189  0.95903  0.74527  1.0000
  C   C3        1.0  0.60189  0.54097  0.75473  1.0000
  C   C4        1.0  0.89811  0.04097  0.25473  1.0000
  C   C5        1.0  0.36568  0.37324  0.16016  1.0000
  C   C6        1.0  0.13432  0.87323  0.66015  1.0000
  C   C7        1.0  0.63432  0.62677  0.83985  1.0000
  C   C8        1.0  0.86568  0.12677  0.33985  1.0000
  C   C9        1.0  0.51433  0.36452  0.08279  1.0000
  C   C10       1.0  0.98566  0.86452  0.58279  1.0000
  C   C11       1.0  0.48567  0.63548  0.91721  1.0000
  C   C12       1.0  0.01433  0.13548  0.41721  1.0000
  C   C13       1.0  0.68272  0.44344  0.08754  1.0000
  C   C14       1.0  0.81728  0.94344  0.58754  1.0000
  C   C15       1.0  0.31728  0.55656  0.91246  1.0000
  C   C16       1.0  0.18271  0.05656  0.41246  1.0000
  C   C17       1.0  0.70820  0.52935  0.17136  1.0000
  C   C18       1.0  0.79180  0.02934  0.67136  1.0000
  C   C19       1.0  0.29180  0.47065  0.82864  1.0000
  C   C20       1.0  0.20820  0.97065  0.32864  1.0000
  C   C21       1.0  0.57087  0.53640  0.25057  1.0000
  C   C22       1.0  0.92913  0.03640  0.75057  1.0000
  C   C23       1.0  0.42913  0.46360  0.74943  1.0000
  C   C24       1.0  0.07087  0.96360  0.24943  1.0000
  C   C25       1.0  0.25587  0.47255  0.33401  1.0000
  C   C26       1.0  0.24413  0.97255  0.83401  1.0000
  C   C27       1.0  0.74413  0.52745  0.66599  1.0000
  C   C28       1.0  0.75587  0.02745  0.16599  1.0000
  I   I1        1.0  0.10285  0.25771  0.15010  1.0000
  I   I2        1.0  0.39715  0.75771  0.65010  1.0000
  I   I3        1.0  0.89715  0.74229  0.84990  1.0000
  I   I4        1.0  0.60285  0.24229  0.34990  1.0000
  I   I5        1.0  0.51394  0.23148  0.95733  1.0000
  I   I6        1.0  0.98606  0.73148  0.45733  1.0000
  I   I7        1.0  0.48606  0.76852  0.04267  1.0000
  I   I8        1.0  0.01394  0.26852  0.54267  1.0000
  I   I9        1.0  0.97406  0.64232  0.17791  1.0000
  I   I10       1.0  0.52594  0.14232  0.67791  1.0000
  I   I11       1.0  0.02594  0.35768  0.82209  1.0000
  I   I12       1.0  0.47406  0.85768  0.32209  1.0000
  O   O1        1.0  0.03725  0.47037  0.32582  1.0000
  O   O2        1.0  0.46276  0.97037  0.82582  1.0000
  O   O3        1.0  0.96276  0.52963  0.67418  1.0000
  O   O4        1.0  0.53724  0.02963  0.17418  1.0000
  O   O5        1.0  0.37008  0.48679  0.41092  1.0000
  O   O6        1.0  0.12993  0.98679  0.91092  1.0000
  O   O7        1.0  0.62993  0.51321  0.58908  1.0000
  O   O8        1.0  0.87007  0.01321  0.08908  1.0000
