data_image0
_chemical_formula_structural       Rb4H6C12N6O18
_chemical_formula_sum              "Rb4 H6 C12 N6 O18"
_cell_length_a       7.23514
_cell_length_b       9.61605
_cell_length_c       10.1391
_cell_angle_alpha    115.307
_cell_angle_beta     109.791
_cell_angle_gamma    93.9153

_space_group_name_H-M_alt    "P 1"
_space_group_IT_number       1

loop_
  _space_group_symop_operation_xyz
  'x, y, z'

loop_
  _atom_site_type_symbol
  _atom_site_label
  _atom_site_symmetry_multiplicity
  _atom_site_fract_x
  _atom_site_fract_y
  _atom_site_fract_z
  _atom_site_occupancy
  Rb  Rb1       1.0  0.93611  0.71784  0.07550  1.0000
  Rb  Rb2       1.0  0.06389  0.28216  0.92450  1.0000
  Rb  Rb3       1.0  0.54118  0.90339  0.28218  1.0000
  Rb  Rb4       1.0  0.45882  0.09661  0.71782  1.0000
  H   H1        1.0  0.59956  0.25900  0.30939  1.0000
  H   H2        1.0  0.40044  0.74099  0.69061  1.0000
  H   H3        1.0  0.18065  0.94653  0.98380  1.0000
  H   H4        1.0  0.81934  0.05346  0.01620  1.0000
  H   H5        1.0  0.18732  0.09151  0.13657  1.0000
  H   H6        1.0  0.81268  0.90849  0.86343  1.0000
  C   C1        1.0  0.70614  0.46256  0.29723  1.0000
  C   C2        1.0  0.29386  0.53744  0.70277  1.0000
  C   C3        1.0  0.79501  0.63422  0.37778  1.0000
  C   C4        1.0  0.20499  0.36578  0.62222  1.0000
  C   C5        1.0  0.85649  0.70890  0.54865  1.0000
  C   C6        1.0  0.14350  0.29110  0.45135  1.0000
  C   C7        1.0  0.82524  0.63477  0.63915  1.0000
  C   C8        1.0  0.17476  0.36523  0.36085  1.0000
  C   C9        1.0  0.73454  0.46242  0.54324  1.0000
  C   C10       1.0  0.26545  0.53758  0.45676  1.0000
  C   C11       1.0  0.67329  0.38519  0.37793  1.0000
  C   C12       1.0  0.32671  0.61482  0.62207  1.0000
  N   N1        1.0  0.64032  0.36958  0.12837  1.0000
  N   N2        1.0  0.35968  0.63042  0.87163  1.0000
  N   N3        1.0  0.94773  0.87548  0.63607  1.0000
  N   N4        1.0  0.05227  0.12452  0.36394  1.0000
  N   N5        1.0  0.69914  0.36796  0.61212  1.0000
  N   N6        1.0  0.30086  0.63203  0.38788  1.0000
  O   O1        1.0  0.49887  0.24536  0.05514  1.0000
  O   O2        1.0  0.50113  0.75464  0.94486  1.0000
  O   O3        1.0  0.72403  0.41180  0.05698  1.0000
  O   O4        1.0  0.27598  0.58820  0.94303  1.0000
  O   O5        1.0  0.81328  0.70847  0.30477  1.0000
  O   O6        1.0  0.18672  0.29153  0.69523  1.0000
  O   O7        1.0  0.86610  0.96578  0.58942  1.0000
  O   O8        1.0  0.13391  0.03422  0.41058  1.0000
  O   O9        1.0  0.11234  0.92828  0.75862  1.0000
  O   O10       1.0  0.88767  0.07172  0.24138  1.0000
  O   O11       1.0  0.85906  0.71481  0.78508  1.0000
  O   O12       1.0  0.14094  0.28518  0.21492  1.0000
  O   O13       1.0  0.76037  0.42624  0.76103  1.0000
  O   O14       1.0  0.23963  0.57376  0.23897  1.0000
  O   O15       1.0  0.60494  0.22316  0.52124  1.0000
  O   O16       1.0  0.39506  0.77684  0.47875  1.0000
  O   O17       1.0  0.21691  0.98547  0.09778  1.0000
  O   O18       1.0  0.78309  0.01453  0.90222  1.0000
