data_image0
_chemical_formula_structural       Cs4H8C24N12O32
_chemical_formula_sum              "Cs4 H8 C24 N12 O32"
_cell_length_a       4.66875
_cell_length_b       11.1907
_cell_length_c       20.1099
_cell_angle_alpha    89.9998
_cell_angle_beta     90.1957
_cell_angle_gamma    89.9997

_space_group_name_H-M_alt    "P 1"
_space_group_IT_number       1

loop_
  _space_group_symop_operation_xyz
  'x, y, z'

loop_
  _atom_site_type_symbol
  _atom_site_label
  _atom_site_symmetry_multiplicity
  _atom_site_fract_x
  _atom_site_fract_y
  _atom_site_fract_z
  _atom_site_occupancy
  Cs  Cs1       1.0  0.90844  0.86093  0.13086  1.0000
  Cs  Cs2       1.0  0.59156  0.36093  0.36914  1.0000
  Cs  Cs3       1.0  0.09156  0.13907  0.86914  1.0000
  Cs  Cs4       1.0  0.40844  0.63907  0.63086  1.0000
  H   H1        1.0  0.66378  0.96444  0.30710  1.0000
  H   H2        1.0  0.83622  0.46444  0.19290  1.0000
  H   H3        1.0  0.33621  0.03556  0.69290  1.0000
  H   H4        1.0  0.16378  0.53556  0.80710  1.0000
  H   H5        1.0  0.09273  0.88439  0.47832  1.0000
  H   H6        1.0  0.40726  0.38439  0.02168  1.0000
  H   H7        1.0  0.90727  0.11560  0.52168  1.0000
  H   H8        1.0  0.59273  0.61561  0.97832  1.0000
  C   C1        1.0  0.42564  0.83444  0.32830  1.0000
  C   C2        1.0  0.07435  0.33443  0.17170  1.0000
  C   C3        1.0  0.57435  0.16556  0.67170  1.0000
  C   C4        1.0  0.92565  0.66557  0.82830  1.0000
  C   C5        1.0  0.31987  0.71894  0.31654  1.0000
  C   C6        1.0  0.18012  0.21894  0.18346  1.0000
  C   C7        1.0  0.68012  0.28106  0.68346  1.0000
  C   C8        1.0  0.81988  0.78106  0.81654  1.0000
  C   C9        1.0  0.13525  0.65357  0.36243  1.0000
  C   C10       1.0  0.36475  0.15357  0.13756  1.0000
  C   C11       1.0  0.86475  0.34643  0.63757  1.0000
  C   C12       1.0  0.63525  0.84643  0.86243  1.0000
  C   C13       1.0  0.05298  0.72464  0.42066  1.0000
  C   C14       1.0  0.44702  0.22464  0.07934  1.0000
  C   C15       1.0  0.94702  0.27535  0.57934  1.0000
  C   C16       1.0  0.55299  0.77536  0.92066  1.0000
  C   C17       1.0  0.15406  0.83780  0.43300  1.0000
  C   C18       1.0  0.34594  0.33780  0.06700  1.0000
  C   C19       1.0  0.84594  0.16220  0.56700  1.0000
  C   C20       1.0  0.65406  0.66221  0.93300  1.0000
  C   C21       1.0  0.33568  0.89466  0.38775  1.0000
  C   C22       1.0  0.16431  0.39466  0.11225  1.0000
  C   C23       1.0  0.66432  0.10534  0.61225  1.0000
  C   C24       1.0  0.83569  0.60534  0.88775  1.0000
  N   N1        1.0  0.39989  0.65989  0.25571  1.0000
  N   N2        1.0  0.10011  0.15988  0.24429  1.0000
  N   N3        1.0  0.60011  0.34011  0.74429  1.0000
  N   N4        1.0  0.89988  0.84011  0.75571  1.0000
  N   N5        1.0  0.87441  0.67102  0.47095  1.0000
  N   N6        1.0  0.62559  0.17101  0.02905  1.0000
  N   N7        1.0  0.12560  0.32898  0.52906  1.0000
  N   N8        1.0  0.37442  0.82899  0.97095  1.0000
  N   N9        1.0  0.42834  0.01230  0.40212  1.0000
  N   N10       1.0  0.07165  0.51230  0.09788  1.0000
  N   N11       1.0  0.57165  0.98770  0.59788  1.0000
  N   N12       1.0  0.92834  0.48770  0.90212  1.0000
  O   O1        1.0  0.61318  0.88341  0.28708  1.0000
  O   O2        1.0  0.88682  0.38341  0.21292  1.0000
  O   O3        1.0  0.38682  0.11659  0.71292  1.0000
  O   O4        1.0  0.11318  0.61659  0.78708  1.0000
  O   O5        1.0  0.39241  0.71859  0.20278  1.0000
  O   O6        1.0  0.10759  0.21859  0.29722  1.0000
  O   O7        1.0  0.60759  0.28141  0.79722  1.0000
  O   O8        1.0  0.89241  0.78141  0.70278  1.0000
  O   O9        1.0  0.46529  0.55222  0.25764  1.0000
  O   O10       1.0  0.03471  0.05221  0.24235  1.0000
  O   O11       1.0  0.53471  0.44779  0.74235  1.0000
  O   O12       1.0  0.96527  0.94779  0.75764  1.0000
  O   O13       1.0  0.06026  0.54755  0.35397  1.0000
  O   O14       1.0  0.43974  0.04755  0.14603  1.0000
  O   O15       1.0  0.93974  0.45245  0.64603  1.0000
  O   O16       1.0  0.56025  0.95245  0.85397  1.0000
  O   O17       1.0  0.67531  0.60389  0.45359  1.0000
  O   O18       1.0  0.82470  0.10389  0.04641  1.0000
  O   O19       1.0  0.32471  0.39610  0.54641  1.0000
  O   O20       1.0  0.17532  0.89612  0.95360  1.0000
  O   O21       1.0  0.92727  0.69570  0.53039  1.0000
  O   O22       1.0  0.57273  0.19570  0.96961  1.0000
  O   O23       1.0  0.07274  0.30431  0.46961  1.0000
  O   O24       1.0  0.42728  0.80430  0.03039  1.0000
  O   O25       1.0  0.33283  0.06693  0.45097  1.0000
  O   O26       1.0  0.16716  0.56693  0.04902  1.0000
  O   O27       1.0  0.66717  0.93307  0.54903  1.0000
  O   O28       1.0  0.83282  0.43307  0.95097  1.0000
  O   O29       1.0  0.61412  0.06030  0.36378  1.0000
  O   O30       1.0  0.88588  0.56029  0.13622  1.0000
  O   O31       1.0  0.38587  0.93971  0.63622  1.0000
  O   O32       1.0  0.11412  0.43971  0.86378  1.0000
