data_image0
_chemical_formula_structural       Cd2H32C38N8O10
_chemical_formula_sum              "Cd2 H32 C38 N8 O10"
_cell_length_a       8.45373
_cell_length_b       10.2038
_cell_length_c       12.5407
_cell_angle_alpha    109.011
_cell_angle_beta     103.733
_cell_angle_gamma    98.6473

_space_group_name_H-M_alt    "P 1"
_space_group_IT_number       1

loop_
  _space_group_symop_operation_xyz
  'x, y, z'

loop_
  _atom_site_type_symbol
  _atom_site_label
  _atom_site_symmetry_multiplicity
  _atom_site_fract_x
  _atom_site_fract_y
  _atom_site_fract_z
  _atom_site_occupancy
  Cd  Cd1       1.0  0.84323  0.88075  0.29836  1.0000
  Cd  Cd2       1.0  0.15678  0.11925  0.70164  1.0000
  H   H1        1.0  0.13492  0.09363  0.43702  1.0000
  H   H2        1.0  0.86510  0.90636  0.56297  1.0000
  H   H3        1.0  0.19010  0.95976  0.44702  1.0000
  H   H4        1.0  0.80990  0.04023  0.55298  1.0000
  H   H5        1.0  0.13940  0.70030  0.96156  1.0000
  H   H6        1.0  0.86060  0.29970  0.03843  1.0000
  H   H7        1.0  0.42657  0.89807  0.29576  1.0000
  H   H8        1.0  0.57341  0.10192  0.70425  1.0000
  H   H9        1.0  0.60057  0.55929  0.10319  1.0000
  H   H10       1.0  0.39944  0.44074  0.89679  1.0000
  H   H11       1.0  0.25474  0.46454  0.05693  1.0000
  H   H12       1.0  0.74527  0.53547  0.94303  1.0000
  H   H13       1.0  0.12644  0.74567  0.27139  1.0000
  H   H14       1.0  0.87354  0.25430  0.72859  1.0000
  H   H15       1.0  0.05475  0.57301  0.16372  1.0000
  H   H16       1.0  0.94525  0.42697  0.83626  1.0000
  H   H17       1.0  0.97823  0.80210  0.77874  1.0000
  H   H18       1.0  0.02175  0.19791  0.22125  1.0000
  H   H19       1.0  0.74256  0.91392  0.73464  1.0000
  H   H20       1.0  0.25744  0.08610  0.26536  1.0000
  H   H21       1.0  0.56852  0.97318  0.86856  1.0000
  H   H22       1.0  0.43146  0.02681  0.13144  1.0000
  H   H23       1.0  0.63479  0.93213  0.05961  1.0000
  H   H24       1.0  0.36520  0.06786  0.94039  1.0000
  H   H25       1.0  0.84022  0.36093  0.30715  1.0000
  H   H26       1.0  0.15979  0.63907  0.69287  1.0000
  H   H27       1.0  0.73321  0.69331  0.57342  1.0000
  H   H28       1.0  0.26680  0.30670  0.42658  1.0000
  H   H29       1.0  0.64000  0.51924  0.65949  1.0000
  H   H30       1.0  0.35997  0.48076  0.34051  1.0000
  H   H31       1.0  0.64507  0.26269  0.56621  1.0000
  H   H32       1.0  0.35494  0.73732  0.43380  1.0000
  C   C1        1.0  0.42834  0.79507  0.23449  1.0000
  C   C2        1.0  0.57165  0.20492  0.76552  1.0000
  C   C3        1.0  0.51124  0.61648  0.13235  1.0000
  C   C4        1.0  0.48876  0.38353  0.86763  1.0000
  C   C5        1.0  0.34142  0.56818  0.10948  1.0000
  C   C6        1.0  0.65858  0.43183  0.89050  1.0000
  C   C7        1.0  0.12129  0.68239  0.18095  1.0000
  C   C8        1.0  0.87870  0.31759  0.81903  1.0000
  C   C9        1.0  0.02429  0.74090  0.09882  1.0000
  C   C10       1.0  0.97570  0.25910  0.90117  1.0000
  C   C11       1.0  0.93039  0.79718  0.94129  1.0000
  C   C12       1.0  0.06961  0.20283  0.05870  1.0000
  C   C13       1.0  0.90061  0.82493  0.83740  1.0000
  C   C14       1.0  0.09939  0.17509  0.16260  1.0000
  C   C15       1.0  0.76840  0.88874  0.81415  1.0000
  C   C16       1.0  0.23160  0.11128  0.18586  1.0000
  C   C17       1.0  0.67148  0.92470  0.89172  1.0000
  C   C18       1.0  0.32852  0.07532  0.10828  1.0000
  C   C19       1.0  0.70484  0.90060  0.99694  1.0000
  C   C20       1.0  0.29516  0.09941  0.00307  1.0000
  C   C21       1.0  0.83631  0.83574  0.02117  1.0000
  C   C22       1.0  0.16369  0.16428  0.97883  1.0000
  C   C23       1.0  0.76097  0.14618  0.38310  1.0000
  C   C24       1.0  0.23904  0.85382  0.61694  1.0000
  C   C25       1.0  0.74745  0.29695  0.43323  1.0000
  C   C26       1.0  0.25256  0.70305  0.56678  1.0000
  C   C27       1.0  0.79652  0.39515  0.38428  1.0000
  C   C28       1.0  0.20351  0.60485  0.61573  1.0000
  C   C29       1.0  0.79146  0.53791  0.43420  1.0000
  C   C30       1.0  0.20856  0.46210  0.56580  1.0000
  C   C31       1.0  0.73795  0.58232  0.53492  1.0000
  C   C32       1.0  0.26205  0.41768  0.46509  1.0000
  C   C33       1.0  0.68608  0.48433  0.58324  1.0000
  C   C34       1.0  0.31391  0.51567  0.41677  1.0000
  C   C35       1.0  0.68929  0.34182  0.53194  1.0000
  C   C36       1.0  0.31072  0.65819  0.46808  1.0000
  C   C37       1.0  0.83838  0.63936  0.37665  1.0000
  C   C38       1.0  0.16163  0.36062  0.62335  1.0000
  N   N1        1.0  0.56293  0.75726  0.20958  1.0000
  N   N2        1.0  0.43707  0.24275  0.79042  1.0000
  N   N3        1.0  0.29060  0.68278  0.17490  1.0000
  N   N4        1.0  0.70939  0.31722  0.82509  1.0000
  N   N5        1.0  0.89959  0.80033  0.11828  1.0000
  N   N6        1.0  0.10041  0.19967  0.88172  1.0000
  N   N7        1.0  0.04692  0.73521  0.99297  1.0000
  N   N8        1.0  0.95307  0.26479  0.00702  1.0000
  O   O1        1.0  0.81891  0.10852  0.29555  1.0000
  O   O2        1.0  0.18112  0.89146  0.70450  1.0000
  O   O3        1.0  0.71508  0.05894  0.43026  1.0000
  O   O4        1.0  0.28489  0.94107  0.56977  1.0000
  O   O5        1.0  0.85425  0.59209  0.27477  1.0000
  O   O6        1.0  0.14574  0.40788  0.72522  1.0000
  O   O7        1.0  0.85556  0.77421  0.43460  1.0000
  O   O8        1.0  0.14446  0.22578  0.56539  1.0000
  O   O9        1.0  0.13354  0.99499  0.38577  1.0000
  O   O10       1.0  0.86648  0.00500  0.61423  1.0000
