data_image0
_chemical_formula_structural       Cu4H28C32S4N8O8
_chemical_formula_sum              "Cu4 H28 C32 S4 N8 O8"
_cell_length_a       5.78033
_cell_length_b       12.3962
_cell_length_c       12.8569
_cell_angle_alpha    90.0002
_cell_angle_beta     94.0121
_cell_angle_gamma    89.9995

_space_group_name_H-M_alt    "P 1"
_space_group_IT_number       1

loop_
  _space_group_symop_operation_xyz
  'x, y, z'

loop_
  _atom_site_type_symbol
  _atom_site_label
  _atom_site_symmetry_multiplicity
  _atom_site_fract_x
  _atom_site_fract_y
  _atom_site_fract_z
  _atom_site_occupancy
  Cu  Cu1       1.0  0.10629  0.09518  0.00617  1.0000
  Cu  Cu2       1.0  0.60624  0.40483  0.50618  1.0000
  Cu  Cu3       1.0  0.89377  0.90483  0.99383  1.0000
  Cu  Cu4       1.0  0.39373  0.59518  0.49383  1.0000
  H   H1        1.0  0.70514  0.11426  0.14170  1.0000
  H   H2        1.0  0.20513  0.38574  0.64170  1.0000
  H   H3        1.0  0.29489  0.88573  0.85830  1.0000
  H   H4        1.0  0.79489  0.61426  0.35831  1.0000
  H   H5        1.0  0.51070  0.26263  0.23280  1.0000
  H   H6        1.0  0.01068  0.23737  0.73281  1.0000
  H   H7        1.0  0.48931  0.73735  0.76719  1.0000
  H   H8        1.0  0.98932  0.76263  0.26720  1.0000
  H   H9        1.0  0.67945  0.45007  0.22723  1.0000
  H   H10       1.0  0.17944  0.04993  0.72723  1.0000
  H   H11       1.0  0.32053  0.54992  0.77277  1.0000
  H   H12       1.0  0.82056  0.95007  0.27277  1.0000
  H   H13       1.0  0.22443  0.31860  0.05331  1.0000
  H   H14       1.0  0.72442  0.18140  0.55331  1.0000
  H   H15       1.0  0.77558  0.68140  0.94669  1.0000
  H   H16       1.0  0.27557  0.81861  0.44669  1.0000
  H   H17       1.0  0.44377  0.63427  0.18113  1.0000
  H   H18       1.0  0.94378  0.86574  0.68113  1.0000
  H   H19       1.0  0.55619  0.36574  0.81888  1.0000
  H   H20       1.0  0.05623  0.13427  0.31887  1.0000
  H   H21       1.0  0.54409  0.60251  0.05577  1.0000
  H   H22       1.0  0.04411  0.89751  0.55577  1.0000
  H   H23       1.0  0.45586  0.39752  0.94422  1.0000
  H   H24       1.0  0.95591  0.10250  0.44423  1.0000
  H   H25       1.0  0.27720  0.67682  0.06599  1.0000
  H   H26       1.0  0.77724  0.82318  0.56599  1.0000
  H   H27       1.0  0.72273  0.32319  0.93402  1.0000
  H   H28       1.0  0.22280  0.17682  0.43401  1.0000
  C   C1        1.0  0.42276  0.91042  0.08543  1.0000
  C   C2        1.0  0.92269  0.58958  0.58544  1.0000
  C   C3        1.0  0.57731  0.08957  0.91456  1.0000
  C   C4        1.0  0.07728  0.41042  0.41457  1.0000
  C   C5        1.0  0.77508  0.19585  0.14239  1.0000
  C   C6        1.0  0.27507  0.30415  0.64239  1.0000
  C   C7        1.0  0.22493  0.80414  0.85761  1.0000
  C   C8        1.0  0.72494  0.69585  0.35762  1.0000
  C   C9        1.0  0.66513  0.27938  0.19188  1.0000
  C   C10       1.0  0.16512  0.22062  0.69187  1.0000
  C   C11       1.0  0.33488  0.72061  0.80813  1.0000
  C   C12       1.0  0.83489  0.77938  0.30814  1.0000
  C   C13       1.0  0.75983  0.38226  0.18997  1.0000
  C   C14       1.0  0.25983  0.11773  0.68998  1.0000
  C   C15       1.0  0.24016  0.61773  0.81002  1.0000
  C   C16       1.0  0.74018  0.88226  0.31003  1.0000
  C   C17       1.0  0.96476  0.39836  0.14004  1.0000
  C   C18       1.0  0.46475  0.10164  0.64004  1.0000
  C   C19       1.0  0.03525  0.60163  0.85996  1.0000
  C   C20       1.0  0.53524  0.89836  0.35995  1.0000
  C   C21       1.0  0.06520  0.31016  0.09293  1.0000
  C   C22       1.0  0.56519  0.18984  0.59294  1.0000
  C   C23       1.0  0.93481  0.68984  0.90706  1.0000
  C   C24       1.0  0.43480  0.81017  0.40707  1.0000
  C   C25       1.0  0.06715  0.50834  0.13896  1.0000
  C   C26       1.0  0.56717  0.99166  0.63896  1.0000
  C   C27       1.0  0.93280  0.49166  0.86104  1.0000
  C   C28       1.0  0.43285  0.00834  0.36104  1.0000
  C   C29       1.0  0.39135  0.61369  0.09994  1.0000
  C   C30       1.0  0.89138  0.88631  0.59993  1.0000
  C   C31       1.0  0.60860  0.38633  0.90007  1.0000
  C   C32       1.0  0.10864  0.11369  0.40006  1.0000
  S   S1        1.0  0.17176  0.94578  0.12734  1.0000
  S   S2        1.0  0.67169  0.55422  0.62735  1.0000
  S   S3        1.0  0.82832  0.05421  0.87265  1.0000
  S   S4        1.0  0.32826  0.44578  0.37266  1.0000
  N   N1        1.0  0.60390  0.88609  0.05482  1.0000
  N   N2        1.0  0.10383  0.61390  0.55482  1.0000
  N   N3        1.0  0.39618  0.11389  0.94518  1.0000
  N   N4        1.0  0.89612  0.38610  0.44519  1.0000
  N   N5        1.0  0.97169  0.21062  0.09303  1.0000
  N   N6        1.0  0.47169  0.28937  0.59303  1.0000
  N   N7        1.0  0.02832  0.78937  0.90698  1.0000
  N   N8        1.0  0.52830  0.71063  0.40697  1.0000
  O   O1        1.0  0.97326  0.58869  0.17212  1.0000
  O   O2        1.0  0.47326  0.91130  0.67213  1.0000
  O   O3        1.0  0.02671  0.41130  0.82787  1.0000
  O   O4        1.0  0.52674  0.08870  0.32787  1.0000
  O   O5        1.0  0.27432  0.51014  0.09616  1.0000
  O   O6        1.0  0.77432  0.98987  0.59616  1.0000
  O   O7        1.0  0.72565  0.48987  0.90384  1.0000
  O   O8        1.0  0.22568  0.01014  0.40383  1.0000
