data_image0
_chemical_formula_structural       Mn8P4H8C4O28
_chemical_formula_sum              "Mn8 P4 H8 C4 O28"
_cell_length_a       6.51819
_cell_length_b       10.0534
_cell_length_c       10.2226
_cell_angle_alpha    116.407
_cell_angle_beta     90.0001
_cell_angle_gamma    90

_space_group_name_H-M_alt    "P 1"
_space_group_IT_number       1

loop_
  _space_group_symop_operation_xyz
  'x, y, z'

loop_
  _atom_site_type_symbol
  _atom_site_label
  _atom_site_symmetry_multiplicity
  _atom_site_fract_x
  _atom_site_fract_y
  _atom_site_fract_z
  _atom_site_occupancy
  Mn  Mn1       1.0  0.14462  0.02363  0.38139  1.0000
  Mn  Mn2       1.0  0.64462  0.47637  0.61861  1.0000
  Mn  Mn3       1.0  0.85538  0.97637  0.61861  1.0000
  Mn  Mn4       1.0  0.35538  0.52363  0.38139  1.0000
  Mn  Mn5       1.0  0.97401  0.26846  0.26589  1.0000
  Mn  Mn6       1.0  0.47401  0.23154  0.73411  1.0000
  Mn  Mn7       1.0  0.02599  0.73154  0.73411  1.0000
  Mn  Mn8       1.0  0.52599  0.76846  0.26589  1.0000
  P   P1        1.0  0.14937  0.39409  0.60285  1.0000
  P   P2        1.0  0.64937  0.10591  0.39715  1.0000
  P   P3        1.0  0.85063  0.60591  0.39715  1.0000
  P   P4        1.0  0.35063  0.89409  0.60285  1.0000
  H   H1        1.0  0.11426  0.77486  0.12201  1.0000
  H   H2        1.0  0.61426  0.72514  0.87799  1.0000
  H   H3        1.0  0.88574  0.22514  0.87799  1.0000
  H   H4        1.0  0.38574  0.27486  0.12201  1.0000
  H   H5        1.0  0.01823  0.72882  0.24029  1.0000
  H   H6        1.0  0.51823  0.77118  0.75971  1.0000
  H   H7        1.0  0.98177  0.27118  0.75971  1.0000
  H   H8        1.0  0.48177  0.22882  0.24029  1.0000
  C   C1        1.0  0.04626  0.95880  0.04124  1.0000
  C   C2        1.0  0.54626  0.54120  0.95876  1.0000
  C   C3        1.0  0.95373  0.04119  0.95874  1.0000
  C   C4        1.0  0.45373  0.45881  0.04126  1.0000
  O   O1        1.0  0.09314  0.26006  0.45567  1.0000
  O   O2        1.0  0.59314  0.23994  0.54433  1.0000
  O   O3        1.0  0.90686  0.73993  0.54433  1.0000
  O   O4        1.0  0.40686  0.76006  0.45567  1.0000
  O   O5        1.0  0.96404  0.50431  0.65976  1.0000
  O   O6        1.0  0.46404  0.99569  0.34024  1.0000
  O   O7        1.0  0.03596  0.49569  0.34024  1.0000
  O   O8        1.0  0.53597  0.00431  0.65976  1.0000
  O   O9        1.0  0.32622  0.48499  0.57769  1.0000
  O   O10       1.0  0.82622  0.01501  0.42231  1.0000
  O   O11       1.0  0.67378  0.51501  0.42231  1.0000
  O   O12       1.0  0.17378  0.98499  0.57769  1.0000
  O   O13       1.0  0.20071  0.33706  0.71626  1.0000
  O   O14       1.0  0.70070  0.16294  0.28374  1.0000
  O   O15       1.0  0.79930  0.66294  0.28374  1.0000
  O   O16       1.0  0.29930  0.83706  0.71626  1.0000
  O   O17       1.0  0.09349  0.03933  0.17322  1.0000
  O   O18       1.0  0.59349  0.46067  0.82678  1.0000
  O   O19       1.0  0.90651  0.96068  0.82678  1.0000
  O   O20       1.0  0.40651  0.53933  0.17322  1.0000
  O   O21       1.0  0.06748  0.81892  0.97301  1.0000
  O   O22       1.0  0.56748  0.68108  0.02699  1.0000
  O   O23       1.0  0.93251  0.18109  0.02700  1.0000
  O   O24       1.0  0.43251  0.31891  0.97301  1.0000
  O   O25       1.0  0.13604  0.78219  0.22116  1.0000
  O   O26       1.0  0.63604  0.71781  0.77884  1.0000
  O   O27       1.0  0.86396  0.21781  0.77884  1.0000
  O   O28       1.0  0.36396  0.28219  0.22116  1.0000
