data_image0
_chemical_formula_structural       Cu4H28C20S4I4N8
_chemical_formula_sum              "Cu4 H28 C20 S4 I4 N8"
_cell_length_a       7.67632
_cell_length_b       9.88033
_cell_length_c       10.47
_cell_angle_alpha    89.9998
_cell_angle_beta     89.9999
_cell_angle_gamma    104.365

_space_group_name_H-M_alt    "P 1"
_space_group_IT_number       1

loop_
  _space_group_symop_operation_xyz
  'x, y, z'

loop_
  _atom_site_type_symbol
  _atom_site_label
  _atom_site_symmetry_multiplicity
  _atom_site_fract_x
  _atom_site_fract_y
  _atom_site_fract_z
  _atom_site_occupancy
  Cu  Cu1       1.0  0.03808  0.06889  0.13612  1.0000
  Cu  Cu2       1.0  0.46192  0.93111  0.63612  1.0000
  Cu  Cu3       1.0  0.96192  0.93111  0.86388  1.0000
  Cu  Cu4       1.0  0.53808  0.06889  0.36388  1.0000
  H   H1        1.0  0.15788  0.45649  0.18404  1.0000
  H   H2        1.0  0.34212  0.54351  0.68404  1.0000
  H   H3        1.0  0.84212  0.54351  0.81597  1.0000
  H   H4        1.0  0.65788  0.45649  0.31596  1.0000
  H   H5        1.0  0.04747  0.56446  0.27542  1.0000
  H   H6        1.0  0.45253  0.43554  0.77542  1.0000
  H   H7        1.0  0.95253  0.43554  0.72458  1.0000
  H   H8        1.0  0.54747  0.56446  0.22458  1.0000
  H   H9        1.0  0.91956  0.41271  0.19156  1.0000
  H   H10       1.0  0.58044  0.58729  0.69156  1.0000
  H   H11       1.0  0.08044  0.58729  0.80844  1.0000
  H   H12       1.0  0.41955  0.41270  0.30844  1.0000
  H   H13       1.0  0.18252  0.28191  0.63451  1.0000
  H   H14       1.0  0.31749  0.71809  0.13451  1.0000
  H   H15       1.0  0.81749  0.71809  0.36549  1.0000
  H   H16       1.0  0.68251  0.28191  0.86549  1.0000
  H   H17       1.0  0.23423  0.51721  0.47412  1.0000
  H   H18       1.0  0.26577  0.48279  0.97412  1.0000
  H   H19       1.0  0.76577  0.48279  0.52588  1.0000
  H   H20       1.0  0.73423  0.51721  0.02588  1.0000
  H   H21       1.0  0.80221  0.00881  0.50563  1.0000
  H   H22       1.0  0.69778  0.99119  0.00563  1.0000
  H   H23       1.0  0.19779  0.99119  0.49437  1.0000
  H   H24       1.0  0.30221  0.00881  0.99437  1.0000
  H   H25       1.0  0.96087  0.05197  0.63344  1.0000
  H   H26       1.0  0.53913  0.94803  0.13345  1.0000
  H   H27       1.0  0.03913  0.94802  0.36655  1.0000
  H   H28       1.0  0.46087  0.05197  0.86655  1.0000
  C   C1        1.0  0.04248  0.45720  0.24568  1.0000
  C   C2        1.0  0.45752  0.54280  0.74568  1.0000
  C   C3        1.0  0.95752  0.54280  0.75432  1.0000
  C   C4        1.0  0.54247  0.45720  0.25432  1.0000
  C   C5        1.0  0.95648  0.23335  0.36673  1.0000
  C   C6        1.0  0.54352  0.76665  0.86673  1.0000
  C   C7        1.0  0.04352  0.76665  0.63327  1.0000
  C   C8        1.0  0.45648  0.23335  0.13327  1.0000
  C   C9        1.0  0.12655  0.29725  0.54224  1.0000
  C   C10       1.0  0.37345  0.70275  0.04225  1.0000
  C   C11       1.0  0.87345  0.70275  0.45776  1.0000
  C   C12       1.0  0.62655  0.29725  0.95776  1.0000
  C   C13       1.0  0.15146  0.41128  0.46454  1.0000
  C   C14       1.0  0.34853  0.58872  0.96454  1.0000
  C   C15       1.0  0.84855  0.58872  0.53545  1.0000
  C   C16       1.0  0.65147  0.41129  0.03546  1.0000
  C   C17       1.0  0.94553  0.04738  0.52917  1.0000
  C   C18       1.0  0.55447  0.95262  0.02918  1.0000
  C   C19       1.0  0.05447  0.95262  0.47082  1.0000
  C   C20       1.0  0.44553  0.04738  0.97082  1.0000
  S   S1        1.0  0.81472  0.13625  0.25705  1.0000
  S   S2        1.0  0.68528  0.86374  0.75705  1.0000
  S   S3        1.0  0.18528  0.86375  0.74295  1.0000
  S   S4        1.0  0.31472  0.13625  0.24295  1.0000
  I   I1        1.0  0.06013  0.20305  0.91138  1.0000
  I   I2        1.0  0.43987  0.79695  0.41138  1.0000
  I   I3        1.0  0.93987  0.79695  0.08862  1.0000
  I   I4        1.0  0.56013  0.20305  0.58862  1.0000
  N   N1        1.0  0.04556  0.37075  0.35719  1.0000
  N   N2        1.0  0.45444  0.62925  0.85719  1.0000
  N   N3        1.0  0.95444  0.62925  0.64281  1.0000
  N   N4        1.0  0.54555  0.37075  0.14281  1.0000
  N   N5        1.0  0.00660  0.18902  0.48126  1.0000
  N   N6        1.0  0.49340  0.81098  0.98126  1.0000
  N   N7        1.0  0.99340  0.81098  0.51874  1.0000
  N   N8        1.0  0.50660  0.18902  0.01874  1.0000
