data_image0
_chemical_formula_structural       Zn2H34C40I2N12O10
_chemical_formula_sum              "Zn2 H34 C40 I2 N12 O10"
_cell_length_a       10.2381
_cell_length_b       10.2439
_cell_length_c       13.616
_cell_angle_alpha    71.8984
_cell_angle_beta     84.1881
_cell_angle_gamma    72.0482

_space_group_name_H-M_alt    "P 1"
_space_group_IT_number       1

loop_
  _space_group_symop_operation_xyz
  'x, y, z'

loop_
  _atom_site_type_symbol
  _atom_site_label
  _atom_site_symmetry_multiplicity
  _atom_site_fract_x
  _atom_site_fract_y
  _atom_site_fract_z
  _atom_site_occupancy
  Zn  Zn1       1.0  0.86962  0.27350  0.54729  1.0000
  Zn  Zn2       1.0  0.13039  0.72649  0.45271  1.0000
  H   H1        1.0  0.90075  0.05417  0.40785  1.0000
  H   H2        1.0  0.09927  0.94581  0.59216  1.0000
  H   H3        1.0  0.36014  0.27756  0.56099  1.0000
  H   H4        1.0  0.63987  0.72245  0.43901  1.0000
  H   H5        1.0  0.23414  0.12549  0.33555  1.0000
  H   H6        1.0  0.76585  0.87455  0.66444  1.0000
  H   H7        1.0  0.65925  0.10988  0.35395  1.0000
  H   H8        1.0  0.34075  0.89013  0.64604  1.0000
  H   H9        1.0  0.60971  0.39971  0.69423  1.0000
  H   H10       1.0  0.39031  0.60029  0.30576  1.0000
  H   H11       1.0  0.01252  0.42798  0.67012  1.0000
  H   H12       1.0  0.98749  0.57203  0.32988  1.0000
  H   H13       1.0  0.21240  0.90251  0.20891  1.0000
  H   H14       1.0  0.78761  0.09750  0.79108  1.0000
  H   H15       1.0  0.52981  0.50557  0.84802  1.0000
  H   H16       1.0  0.47019  0.49441  0.15197  1.0000
  H   H17       1.0  0.58913  0.65877  0.82210  1.0000
  H   H18       1.0  0.41086  0.34121  0.17791  1.0000
  H   H19       1.0  0.61594  0.29453  0.00170  1.0000
  H   H20       1.0  0.38406  0.70543  0.99830  1.0000
  H   H21       1.0  0.73986  0.19214  0.16754  1.0000
  H   H22       1.0  0.26014  0.80784  0.83246  1.0000
  H   H23       1.0  0.89552  0.55738  0.09573  1.0000
  H   H24       1.0  0.10447  0.44260  0.90427  1.0000
  H   H25       1.0  0.77024  0.66100  0.92933  1.0000
  H   H26       1.0  0.22976  0.33896  0.07068  1.0000
  H   H27       1.0  0.97824  0.36541  0.24250  1.0000
  H   H28       1.0  0.02174  0.63459  0.75750  1.0000
  H   H29       1.0  0.83622  0.31453  0.31057  1.0000
  H   H30       1.0  0.16377  0.68546  0.68944  1.0000
  H   H31       1.0  0.81133  0.55698  0.43834  1.0000
  H   H32       1.0  0.18868  0.44302  0.56167  1.0000
  H   H33       1.0  0.68072  0.50244  0.44358  1.0000
  H   H34       1.0  0.31929  0.49757  0.55642  1.0000
  C   C1        1.0  0.62119  0.24256  0.50760  1.0000
  C   C2        1.0  0.37882  0.75746  0.49239  1.0000
  C   C3        1.0  0.51860  0.20203  0.46028  1.0000
  C   C4        1.0  0.48140  0.79799  0.53971  1.0000
  C   C5        1.0  0.97152  0.04451  0.34363  1.0000
  C   C6        1.0  0.02848  0.95548  0.65638  1.0000
  C   C7        1.0  0.38347  0.23415  0.49586  1.0000
  C   C8        1.0  0.61653  0.76586  0.50414  1.0000
  C   C9        1.0  0.28062  0.20900  0.45107  1.0000
  C   C10       1.0  0.71938  0.79102  0.54893  1.0000
  C   C11       1.0  0.31399  0.14554  0.37059  1.0000
  C   C12       1.0  0.68600  0.85449  0.62940  1.0000
  C   C13       1.0  0.45043  0.10972  0.33739  1.0000
  C   C14       1.0  0.54956  0.89031  0.66259  1.0000
  C   C15       1.0  0.55327  0.13765  0.38069  1.0000
  C   C16       1.0  0.44673  0.86238  0.61929  1.0000
  C   C17       1.0  0.13683  0.25361  0.49080  1.0000
  C   C18       1.0  0.86317  0.74639  0.50921  1.0000
  C   C19       1.0  0.70288  0.42168  0.70664  1.0000
  C   C20       1.0  0.29714  0.57831  0.29336  1.0000
  C   C21       1.0  0.90719  0.43814  0.69526  1.0000
  C   C22       1.0  0.09281  0.56186  0.30474  1.0000
  C   C23       1.0  0.12859  0.97220  0.24096  1.0000
  C   C24       1.0  0.87141  0.02780  0.75904  1.0000
  C   C25       1.0  0.62040  0.54094  0.84890  1.0000
  C   C26       1.0  0.37960  0.45905  0.15110  1.0000
  C   C27       1.0  0.68438  0.48494  0.95443  1.0000
  C   C28       1.0  0.31561  0.51503  0.04557  1.0000
  C   C29       1.0  0.67661  0.35308  0.02232  1.0000
  C   C30       1.0  0.32338  0.64689  0.97769  1.0000
  C   C31       1.0  0.74590  0.29586  0.11617  1.0000
  C   C32       1.0  0.25408  0.70412  0.88385  1.0000
  C   C33       1.0  0.82526  0.36889  0.14333  1.0000
  C   C34       1.0  0.17473  0.63109  0.85668  1.0000
  C   C35       1.0  0.83162  0.50143  0.07596  1.0000
  C   C36       1.0  0.16836  0.49855  0.92406  1.0000
  C   C37       1.0  0.76125  0.55950  0.98242  1.0000
  C   C38       1.0  0.23873  0.44048  0.01759  1.0000
  C   C39       1.0  0.90397  0.30732  0.24332  1.0000
  C   C40       1.0  0.09601  0.69267  0.75669  1.0000
  I   I1        1.0  0.50634  0.01164  0.21747  1.0000
  I   I2        1.0  0.49363  0.98844  0.78250  1.0000
  N   N1        1.0  0.82140  0.38806  0.65567  1.0000
  N   N2        1.0  0.17862  0.61194  0.34432  1.0000
  N   N3        1.0  0.84829  0.50031  0.76698  1.0000
  N   N4        1.0  0.15171  0.49969  0.23301  1.0000
  N   N5        1.0  0.71869  0.48829  0.77354  1.0000
  N   N6        1.0  0.28131  0.51171  0.22646  1.0000
  N   N7        1.0  0.97980  0.15595  0.26173  1.0000
  N   N8        1.0  0.02020  0.84404  0.73828  1.0000
  N   N9        1.0  0.08011  0.11226  0.19503  1.0000
  N   N10       1.0  0.91989  0.88775  0.80498  1.0000
  N   N11       1.0  0.06498  0.92549  0.33264  1.0000
  N   N12       1.0  0.93504  0.07450  0.66736  1.0000
  O   O1        1.0  0.74850  0.19476  0.48366  1.0000
  O   O2        1.0  0.25151  0.80523  0.51634  1.0000
  O   O3        1.0  0.57797  0.32235  0.56510  1.0000
  O   O4        1.0  0.42205  0.67769  0.43487  1.0000
  O   O5        1.0  0.11157  0.32947  0.55216  1.0000
  O   O6        1.0  0.88844  0.67054  0.44784  1.0000
  O   O7        1.0  0.04437  0.21302  0.46219  1.0000
  O   O8        1.0  0.95563  0.78699  0.53781  1.0000
  O   O9        1.0  0.77897  0.47899  0.42730  1.0000
  O   O10       1.0  0.22104  0.52102  0.57271  1.0000
