data_image0
_chemical_formula_structural       K2Sr2Tb2H12C32N4O26
_chemical_formula_sum              "K2 Sr2 Tb2 H12 C32 N4 O26"
_cell_length_a       8.02368
_cell_length_b       10.8519
_cell_length_c       12.0692
_cell_angle_alpha    75.39
_cell_angle_beta     71.1938
_cell_angle_gamma    74.7356

_space_group_name_H-M_alt    "P 1"
_space_group_IT_number       1

loop_
  _space_group_symop_operation_xyz
  'x, y, z'

loop_
  _atom_site_type_symbol
  _atom_site_label
  _atom_site_symmetry_multiplicity
  _atom_site_fract_x
  _atom_site_fract_y
  _atom_site_fract_z
  _atom_site_occupancy
  K   K1        1.0  0.27053  0.58959  0.40579  1.0000
  K   K2        1.0  0.72946  0.41042  0.59421  1.0000
  Sr  Sr1       1.0  0.07458  0.89486  0.15395  1.0000
  Sr  Sr2       1.0  0.92542  0.10514  0.84605  1.0000
  Tb  Tb1       1.0  0.18753  0.25995  0.28129  1.0000
  Tb  Tb2       1.0  0.81247  0.74005  0.71871  1.0000
  H   H1        1.0  0.44020  0.86147  0.95988  1.0000
  H   H2        1.0  0.55980  0.13853  0.04012  1.0000
  H   H3        1.0  0.39408  0.99605  0.99396  1.0000
  H   H4        1.0  0.60592  0.00394  0.00604  1.0000
  H   H5        1.0  0.18073  0.32909  0.81186  1.0000
  H   H6        1.0  0.81927  0.67091  0.18815  1.0000
  H   H7        1.0  0.28926  0.65994  0.89783  1.0000
  H   H8        1.0  0.71074  0.34005  0.10217  1.0000
  H   H9        1.0  0.42535  0.18801  0.68076  1.0000
  H   H10       1.0  0.57465  0.81199  0.31924  1.0000
  H   H11       1.0  0.83903  0.04556  0.38370  1.0000
  H   H12       1.0  0.16097  0.95444  0.61629  1.0000
  C   C1        1.0  0.13747  0.18629  0.04378  1.0000
  C   C2        1.0  0.86253  0.81371  0.95622  1.0000
  C   C3        1.0  0.25925  0.54859  0.13705  1.0000
  C   C4        1.0  0.74075  0.45141  0.86295  1.0000
  C   C5        1.0  0.15944  0.27329  0.55970  1.0000
  C   C6        1.0  0.84056  0.72671  0.44030  1.0000
  C   C7        1.0  0.62017  0.12028  0.23073  1.0000
  C   C8        1.0  0.37983  0.87972  0.76927  1.0000
  C   C9        1.0  0.18866  0.31681  0.99179  1.0000
  C   C10       1.0  0.81134  0.68319  0.00821  1.0000
  C   C11       1.0  0.25019  0.49299  0.03631  1.0000
  C   C12       1.0  0.74981  0.50701  0.96369  1.0000
  C   C13       1.0  0.35651  0.21527  0.51620  1.0000
  C   C14       1.0  0.64349  0.78473  0.48380  1.0000
  C   C15       1.0  0.57867  0.14046  0.35640  1.0000
  C   C16       1.0  0.42133  0.85954  0.64360  1.0000
  C   C17       1.0  0.20347  0.37701  0.87356  1.0000
  C   C18       1.0  0.79653  0.62298  0.12644  1.0000
  C   C19       1.0  0.26410  0.56161  0.92023  1.0000
  C   C20       1.0  0.73590  0.43838  0.07977  1.0000
  C   C21       1.0  0.47318  0.17436  0.58845  1.0000
  C   C22       1.0  0.52682  0.82564  0.41155  1.0000
  C   C23       1.0  0.70269  0.09391  0.42269  1.0000
  C   C24       1.0  0.29732  0.90609  0.57731  1.0000
  C   C25       1.0  0.24203  0.50205  0.83679  1.0000
  C   C26       1.0  0.75797  0.49795  0.16321  1.0000
  C   C27       1.0  0.64938  0.11221  0.54051  1.0000
  C   C28       1.0  0.35062  0.88779  0.45949  1.0000
  C   C29       1.0  0.24718  0.57043  0.71050  1.0000
  C   C30       1.0  0.75281  0.42957  0.28950  1.0000
  C   C31       1.0  0.78033  0.05960  0.61425  1.0000
  C   C32       1.0  0.21967  0.94040  0.38574  1.0000
  N   N1        1.0  0.21495  0.37284  0.07029  1.0000
  N   N2        1.0  0.78505  0.62716  0.92971  1.0000
  N   N3        1.0  0.41010  0.20097  0.40203  1.0000
  N   N4        1.0  0.58990  0.79903  0.59797  1.0000
  O   O1        1.0  0.14533  0.13755  0.15046  1.0000
  O   O2        1.0  0.85467  0.86245  0.84954  1.0000
  O   O3        1.0  0.26057  0.46693  0.23497  1.0000
  O   O4        1.0  0.73943  0.53307  0.76504  1.0000
  O   O5        1.0  0.07875  0.32287  0.47799  1.0000
  O   O6        1.0  0.92125  0.67713  0.52201  1.0000
  O   O7        1.0  0.49151  0.17172  0.18053  1.0000
  O   O8        1.0  0.50848  0.82827  0.81947  1.0000
  O   O9        1.0  0.89093  0.34112  0.30088  1.0000
  O   O10       1.0  0.10907  0.65888  0.69912  1.0000
  O   O11       1.0  0.13976  0.05846  0.38845  1.0000
  O   O12       1.0  0.86023  0.94154  0.61155  1.0000
  O   O13       1.0  0.09193  0.13024  0.98140  1.0000
  O   O14       1.0  0.90807  0.86975  0.01861  1.0000
  O   O15       1.0  0.40090  0.90429  0.03095  1.0000
  O   O16       1.0  0.59910  0.09571  0.96905  1.0000
  O   O17       1.0  0.26013  0.66707  0.12103  1.0000
  O   O18       1.0  0.73987  0.33293  0.87897  1.0000
  O   O19       1.0  0.91098  0.73240  0.32989  1.0000
  O   O20       1.0  0.08903  0.26760  0.67011  1.0000
  O   O21       1.0  0.19906  0.86578  0.32874  1.0000
  O   O22       1.0  0.80095  0.13421  0.67126  1.0000
  O   O23       1.0  0.76969  0.05638  0.18414  1.0000
  O   O24       1.0  0.23031  0.94362  0.81586  1.0000
  O   O25       1.0  0.37887  0.53564  0.62736  1.0000
  O   O26       1.0  0.62112  0.46436  0.37264  1.0000
