data_image0
_chemical_formula_structural       Cd2H18C12S2N10O12
_chemical_formula_sum              "Cd2 H18 C12 S2 N10 O12"
_cell_length_a       6.63624
_cell_length_b       9.58831
_cell_length_c       11.0203
_cell_angle_alpha    108.369
_cell_angle_beta     108.581
_cell_angle_gamma    102.976

_space_group_name_H-M_alt    "P 1"
_space_group_IT_number       1

loop_
  _space_group_symop_operation_xyz
  'x, y, z'

loop_
  _atom_site_type_symbol
  _atom_site_label
  _atom_site_symmetry_multiplicity
  _atom_site_fract_x
  _atom_site_fract_y
  _atom_site_fract_z
  _atom_site_occupancy
  Cd  Cd1       1.0  0.01853  0.81881  0.62813  1.0000
  Cd  Cd2       1.0  0.98147  0.18119  0.37188  1.0000
  H   H1        1.0  0.85767  0.86118  0.14269  1.0000
  H   H2        1.0  0.14233  0.13881  0.85730  1.0000
  H   H3        1.0  0.72565  0.65101  0.91357  1.0000
  H   H4        1.0  0.27433  0.34898  0.08643  1.0000
  H   H5        1.0  0.65974  0.11979  0.88355  1.0000
  H   H6        1.0  0.34027  0.88022  0.11644  1.0000
  H   H7        1.0  0.60884  0.42436  0.69021  1.0000
  H   H8        1.0  0.39115  0.57564  0.30979  1.0000
  H   H9        1.0  0.78090  0.33477  0.12095  1.0000
  H   H10       1.0  0.21911  0.66522  0.87905  1.0000
  H   H11       1.0  0.00707  0.51737  0.64191  1.0000
  H   H12       1.0  0.99292  0.48262  0.35809  1.0000
  H   H13       1.0  0.77422  0.49489  0.52189  1.0000
  H   H14       1.0  0.22577  0.50510  0.47810  1.0000
  H   H15       1.0  0.22552  0.01971  0.97900  1.0000
  H   H16       1.0  0.77448  0.98028  0.02099  1.0000
  H   H17       1.0  0.95952  0.92867  0.87263  1.0000
  H   H18       1.0  0.04049  0.07133  0.12736  1.0000
  C   C1        1.0  0.84036  0.64057  0.17534  1.0000
  C   C2        1.0  0.15963  0.35943  0.82466  1.0000
  C   C3        1.0  0.76824  0.51253  0.03849  1.0000
  C   C4        1.0  0.23176  0.48748  0.96151  1.0000
  C   C5        1.0  0.71699  0.53660  0.91495  1.0000
  C   C6        1.0  0.28302  0.46340  0.08506  1.0000
  C   C7        1.0  0.67979  0.24028  0.89627  1.0000
  C   C8        1.0  0.32021  0.75971  0.10373  1.0000
  C   C9        1.0  0.65028  0.40798  0.78763  1.0000
  C   C10       1.0  0.34973  0.59203  0.21237  1.0000
  C   C11       1.0  0.74635  0.35974  0.02822  1.0000
  C   C12       1.0  0.25366  0.64026  0.97178  1.0000
  S   S1        1.0  0.54278  0.79238  0.69490  1.0000
  S   S2        1.0  0.45724  0.20763  0.30510  1.0000
  N   N1        1.0  0.94184  0.77425  0.39541  1.0000
  N   N2        1.0  0.05817  0.22576  0.60459  1.0000
  N   N3        1.0  0.89029  0.62937  0.29890  1.0000
  N   N4        1.0  0.10970  0.37062  0.70110  1.0000
  N   N5        1.0  0.86553  0.79243  0.20186  1.0000
  N   N6        1.0  0.13447  0.20758  0.79814  1.0000
  N   N7        1.0  0.63350  0.26230  0.77718  1.0000
  N   N8        1.0  0.36649  0.73770  0.22282  1.0000
  N   N9        1.0  0.92817  0.87449  0.33885  1.0000
  N   N10       1.0  0.07184  0.12552  0.66116  1.0000
  O   O1        1.0  0.67646  0.82689  0.61493  1.0000
  O   O2        1.0  0.32355  0.17311  0.38507  1.0000
  O   O3        1.0  0.90233  0.57245  0.61526  1.0000
  O   O4        1.0  0.09766  0.42754  0.38473  1.0000
  O   O5        1.0  0.11765  0.97610  0.87827  1.0000
  O   O6        1.0  0.88234  0.02389  0.12173  1.0000
  O   O7        1.0  0.70614  0.85214  0.84789  1.0000
  O   O8        1.0  0.29386  0.14787  0.15211  1.0000
  O   O9        1.0  0.41495  0.62245  0.64015  1.0000
  O   O10       1.0  0.58506  0.37756  0.35984  1.0000
  O   O11       1.0  0.38794  0.88377  0.68874  1.0000
  O   O12       1.0  0.61208  0.11623  0.31126  1.0000
