data_image0
_chemical_formula_structural       Cu2H24C12N4Cl2O2
_chemical_formula_sum              "Cu2 H24 C12 N4 Cl2 O2"
_cell_length_a       6.70814
_cell_length_b       7.20913
_cell_length_c       9.58324
_cell_angle_alpha    93.8068
_cell_angle_beta     103.21
_cell_angle_gamma    103.852

_space_group_name_H-M_alt    "P 1"
_space_group_IT_number       1

loop_
  _space_group_symop_operation_xyz
  'x, y, z'

loop_
  _atom_site_type_symbol
  _atom_site_label
  _atom_site_symmetry_multiplicity
  _atom_site_fract_x
  _atom_site_fract_y
  _atom_site_fract_z
  _atom_site_occupancy
  Cu  Cu1       1.0  0.16910  0.20574  0.48478  1.0000
  Cu  Cu2       1.0  0.83087  0.79431  0.51525  1.0000
  H   H1        1.0  0.86930  0.09103  0.66905  1.0000
  H   H2        1.0  0.13062  0.90892  0.33089  1.0000
  H   H3        1.0  0.62150  0.96402  0.64350  1.0000
  H   H4        1.0  0.37853  0.03595  0.35647  1.0000
  H   H5        1.0  0.77527  0.99018  0.89160  1.0000
  H   H6        1.0  0.22474  0.00983  0.10835  1.0000
  H   H7        1.0  0.00139  0.92855  0.85448  1.0000
  H   H8        1.0  0.99856  0.07146  0.14547  1.0000
  H   H9        1.0  0.40379  0.72741  0.78252  1.0000
  H   H10       1.0  0.59621  0.27256  0.21751  1.0000
  H   H11       1.0  0.41366  0.48233  0.76101  1.0000
  H   H12       1.0  0.58636  0.51769  0.23902  1.0000
  H   H13       1.0  0.46777  0.63221  0.62823  1.0000
  H   H14       1.0  0.53219  0.36778  0.37182  1.0000
  H   H15       1.0  0.65647  0.74598  0.03617  1.0000
  H   H16       1.0  0.34362  0.25402  0.96386  1.0000
  H   H17       1.0  0.68628  0.51081  0.99962  1.0000
  H   H18       1.0  0.31379  0.48923  0.00039  1.0000
  H   H19       1.0  0.91231  0.71105  0.04908  1.0000
  H   H20       1.0  0.08772  0.28895  0.95089  1.0000
  H   H21       1.0  0.99500  0.56731  0.84651  1.0000
  H   H22       1.0  0.00496  0.43266  0.15347  1.0000
  H   H23       1.0  0.74662  0.40205  0.76379  1.0000
  H   H24       1.0  0.25339  0.59799  0.23618  1.0000
  C   C1        1.0  0.97554  0.47337  0.56956  1.0000
  C   C2        1.0  0.02444  0.52665  0.43050  1.0000
  C   C3        1.0  0.82782  0.89891  0.81789  1.0000
  C   C4        1.0  0.17215  0.10108  0.18208  1.0000
  C   C5        1.0  0.72375  0.68688  0.82663  1.0000
  C   C6        1.0  0.27625  0.31313  0.17337  1.0000
  C   C7        1.0  0.48909  0.62933  0.74523  1.0000
  C   C8        1.0  0.51093  0.37067  0.25481  1.0000
  C   C9        1.0  0.74583  0.66277  0.98677  1.0000
  C   C10       1.0  0.25421  0.33725  0.01322  1.0000
  C   C11       1.0  0.84084  0.55182  0.76879  1.0000
  C   C12       1.0  0.15913  0.44821  0.23122  1.0000
  N   N1        1.0  0.77662  0.95519  0.67159  1.0000
  N   N2        1.0  0.22335  0.04477  0.32839  1.0000
  N   N3        1.0  0.87855  0.58341  0.62750  1.0000
  N   N4        1.0  0.12143  0.41660  0.37252  1.0000
  Cl  Cl1       1.0  0.31427  0.05222  0.66151  1.0000
  Cl  Cl2       1.0  0.68576  0.94775  0.33852  1.0000
  O   O1        1.0  0.03060  0.32722  0.61948  1.0000
  O   O2        1.0  0.96942  0.67275  0.38049  1.0000
