data_image0
_chemical_formula_structural       Cd2H26C16S4N6O4
_chemical_formula_sum              "Cd2 H26 C16 S4 N6 O4"
_cell_length_a       7.55739
_cell_length_b       8.70001
_cell_length_c       9.93266
_cell_angle_alpha    81.9235
_cell_angle_beta     74.2448
_cell_angle_gamma    89.5117

_space_group_name_H-M_alt    "P 1"
_space_group_IT_number       1

loop_
  _space_group_symop_operation_xyz
  'x, y, z'

loop_
  _atom_site_type_symbol
  _atom_site_label
  _atom_site_symmetry_multiplicity
  _atom_site_fract_x
  _atom_site_fract_y
  _atom_site_fract_z
  _atom_site_occupancy
  Cd  Cd1       1.0  0.00761  0.20675  0.39918  1.0000
  Cd  Cd2       1.0  0.99237  0.79325  0.60083  1.0000
  H   H1        1.0  0.57128  0.98933  0.36633  1.0000
  H   H2        1.0  0.42871  0.01067  0.63366  1.0000
  H   H3        1.0  0.43814  0.81666  0.43820  1.0000
  H   H4        1.0  0.56186  0.18333  0.56180  1.0000
  H   H5        1.0  0.56099  0.94519  0.11961  1.0000
  H   H6        1.0  0.43901  0.05481  0.88039  1.0000
  H   H7        1.0  0.44416  0.76379  0.19507  1.0000
  H   H8        1.0  0.55586  0.23621  0.80492  1.0000
  H   H9        1.0  0.90414  0.65949  0.03100  1.0000
  H   H10       1.0  0.09586  0.34051  0.96899  1.0000
  H   H11       1.0  0.76420  0.80474  0.96596  1.0000
  H   H12       1.0  0.23580  0.19525  0.03404  1.0000
  H   H13       1.0  0.66392  0.61917  0.05540  1.0000
  H   H14       1.0  0.33609  0.38083  0.94460  1.0000
  H   H15       1.0  0.87038  0.98407  0.10484  1.0000
  H   H16       1.0  0.12963  0.01592  0.89516  1.0000
  H   H17       1.0  0.00570  0.82815  0.15922  1.0000
  H   H18       1.0  0.99430  0.17185  0.84078  1.0000
  H   H19       1.0  0.84748  0.92261  0.28924  1.0000
  H   H20       1.0  0.15252  0.07739  0.71076  1.0000
  H   H21       1.0  0.60200  0.55881  0.30943  1.0000
  H   H22       1.0  0.39800  0.44118  0.69057  1.0000
  H   H23       1.0  0.69810  0.68277  0.40470  1.0000
  H   H24       1.0  0.30190  0.31723  0.59531  1.0000
  H   H25       1.0  0.84578  0.57781  0.27873  1.0000
  H   H26       1.0  0.15423  0.42219  0.72127  1.0000
  C   C1        1.0  0.81648  0.43556  0.63828  1.0000
  C   C2        1.0  0.18352  0.56445  0.36172  1.0000
  C   C3        1.0  0.76422  0.26978  0.17044  1.0000
  C   C4        1.0  0.23580  0.73022  0.82958  1.0000
  C   C5        1.0  0.29718  0.00181  0.35257  1.0000
  C   C6        1.0  0.70281  0.99819  0.64744  1.0000
  C   C7        1.0  0.47008  0.91015  0.34786  1.0000
  C   C8        1.0  0.52991  0.08985  0.65214  1.0000
  C   C9        1.0  0.54136  0.84975  0.20760  1.0000
  C   C10       1.0  0.45864  0.15025  0.79240  1.0000
  C   C11       1.0  0.76734  0.70904  0.04959  1.0000
  C   C12       1.0  0.23267  0.29096  0.95040  1.0000
  C   C13       1.0  0.87337  0.88500  0.18540  1.0000
  C   C14       1.0  0.12663  0.11500  0.81460  1.0000
  C   C15       1.0  0.71615  0.63821  0.30431  1.0000
  C   C16       1.0  0.28385  0.36179  0.69569  1.0000
  S   S1        1.0  0.71327  0.58046  0.71146  1.0000
  S   S2        1.0  0.28674  0.41954  0.28855  1.0000
  S   S3        1.0  0.69802  0.28216  0.02863  1.0000
  S   S4        1.0  0.30196  0.71785  0.97138  1.0000
  N   N1        1.0  0.88717  0.32594  0.59026  1.0000
  N   N2        1.0  0.11283  0.67406  0.40974  1.0000
  N   N3        1.0  0.81124  0.26162  0.27631  1.0000
  N   N4        1.0  0.18876  0.73839  0.72367  1.0000
  N   N5        1.0  0.72433  0.77072  0.18861  1.0000
  N   N6        1.0  0.27567  0.22928  0.81139  1.0000
  O   O1        1.0  0.25203  0.05243  0.24223  1.0000
  O   O2        1.0  0.74796  0.94757  0.75775  1.0000
  O   O3        1.0  0.20215  0.02866  0.47695  1.0000
  O   O4        1.0  0.79785  0.97134  0.52304  1.0000
