data_image0
_chemical_formula_structural       Ag4H20C24S4N8O8
_chemical_formula_sum              "Ag4 H20 C24 S4 N8 O8"
_cell_length_a       6.80527
_cell_length_b       9.92586
_cell_length_c       10.7414
_cell_angle_alpha    89.9998
_cell_angle_beta     90.0001
_cell_angle_gamma    100.183

_space_group_name_H-M_alt    "P 1"
_space_group_IT_number       1

loop_
  _space_group_symop_operation_xyz
  'x, y, z'

loop_
  _atom_site_type_symbol
  _atom_site_label
  _atom_site_symmetry_multiplicity
  _atom_site_fract_x
  _atom_site_fract_y
  _atom_site_fract_z
  _atom_site_occupancy
  Ag  Ag1       1.0  0.83300  0.07450  0.02273  1.0000
  Ag  Ag2       1.0  0.66700  0.92550  0.52273  1.0000
  Ag  Ag3       1.0  0.16700  0.92550  0.97727  1.0000
  Ag  Ag4       1.0  0.33299  0.07449  0.47727  1.0000
  H   H1        1.0  0.54933  0.94534  0.24092  1.0000
  H   H2        1.0  0.95066  0.05467  0.74092  1.0000
  H   H3        1.0  0.45067  0.05466  0.75908  1.0000
  H   H4        1.0  0.04933  0.94534  0.25907  1.0000
  H   H5        1.0  0.65428  0.61746  0.45708  1.0000
  H   H6        1.0  0.84572  0.38255  0.95708  1.0000
  H   H7        1.0  0.34573  0.38254  0.54292  1.0000
  H   H8        1.0  0.15428  0.61746  0.04292  1.0000
  H   H9        1.0  0.80223  0.70077  0.90717  1.0000
  H   H10       1.0  0.69777  0.29923  0.40717  1.0000
  H   H11       1.0  0.19777  0.29923  0.09283  1.0000
  H   H12       1.0  0.30223  0.70077  0.59283  1.0000
  H   H13       1.0  0.54399  0.62707  0.90146  1.0000
  H   H14       1.0  0.95601  0.37294  0.40146  1.0000
  H   H15       1.0  0.45602  0.37293  0.09855  1.0000
  H   H16       1.0  0.04399  0.62706  0.59854  1.0000
  H   H17       1.0  0.69253  0.48160  0.25843  1.0000
  H   H18       1.0  0.80748  0.51840  0.75843  1.0000
  H   H19       1.0  0.30749  0.51840  0.74157  1.0000
  H   H20       1.0  0.19252  0.48160  0.24157  1.0000
  C   C1        1.0  0.58169  0.84160  0.24531  1.0000
  C   C2        1.0  0.91832  0.15840  0.74531  1.0000
  C   C3        1.0  0.41831  0.15840  0.75469  1.0000
  C   C4        1.0  0.08168  0.84160  0.25468  1.0000
  C   C5        1.0  0.63830  0.65837  0.36414  1.0000
  C   C6        1.0  0.86169  0.34163  0.86415  1.0000
  C   C7        1.0  0.36170  0.34164  0.63586  1.0000
  C   C8        1.0  0.13831  0.65837  0.13586  1.0000
  C   C9        1.0  0.65235  0.72143  0.88633  1.0000
  C   C10       1.0  0.84765  0.27857  0.38634  1.0000
  C   C11       1.0  0.34765  0.27857  0.11367  1.0000
  C   C12       1.0  0.15235  0.72143  0.61366  1.0000
  C   C13       1.0  0.60768  0.76622  0.13752  1.0000
  C   C14       1.0  0.89233  0.23379  0.63753  1.0000
  C   C15       1.0  0.39233  0.23378  0.86248  1.0000
  C   C16       1.0  0.10767  0.76622  0.36247  1.0000
  C   C17       1.0  0.64358  0.76966  0.75199  1.0000
  C   C18       1.0  0.85643  0.23033  0.25199  1.0000
  C   C19       1.0  0.35642  0.23033  0.24801  1.0000
  C   C20       1.0  0.14358  0.76966  0.74801  1.0000
  C   C21       1.0  0.65876  0.58503  0.25590  1.0000
  C   C22       1.0  0.84124  0.41498  0.75590  1.0000
  C   C23       1.0  0.34125  0.41496  0.74410  1.0000
  C   C24       1.0  0.15876  0.58503  0.24410  1.0000
  S   S1        1.0  0.59405  0.84935  0.99322  1.0000
  S   S2        1.0  0.90595  0.15066  0.49322  1.0000
  S   S3        1.0  0.40595  0.15065  0.00679  1.0000
  S   S4        1.0  0.09404  0.84935  0.50678  1.0000
  N   N1        1.0  0.60007  0.78730  0.35766  1.0000
  N   N2        1.0  0.89993  0.21271  0.85766  1.0000
  N   N3        1.0  0.39994  0.21270  0.64234  1.0000
  N   N4        1.0  0.10006  0.78729  0.14234  1.0000
  N   N5        1.0  0.64463  0.63861  0.14196  1.0000
  N   N6        1.0  0.85538  0.36140  0.64196  1.0000
  N   N7        1.0  0.35538  0.36139  0.85805  1.0000
  N   N8        1.0  0.14462  0.63861  0.35804  1.0000
  O   O1        1.0  0.61226  0.89188  0.73359  1.0000
  O   O2        1.0  0.88775  0.10812  0.23359  1.0000
  O   O3        1.0  0.38774  0.10811  0.26641  1.0000
  O   O4        1.0  0.11226  0.89188  0.76641  1.0000
  O   O5        1.0  0.66972  0.68559  0.66894  1.0000
  O   O6        1.0  0.83028  0.31440  0.16894  1.0000
  O   O7        1.0  0.33028  0.31440  0.33106  1.0000
  O   O8        1.0  0.16972  0.68559  0.83106  1.0000
