data_image0
_chemical_formula_structural       Mo4H12C16N16O12
_chemical_formula_sum              "Mo4 H12 C16 N16 O12"
_cell_length_a       7.27496
_cell_length_b       8.78018
_cell_length_c       11.5763
_cell_angle_alpha    87.1744
_cell_angle_beta     74.717
_cell_angle_gamma    71.9223

_space_group_name_H-M_alt    "P 1"
_space_group_IT_number       1

loop_
  _space_group_symop_operation_xyz
  'x, y, z'

loop_
  _atom_site_type_symbol
  _atom_site_label
  _atom_site_symmetry_multiplicity
  _atom_site_fract_x
  _atom_site_fract_y
  _atom_site_fract_z
  _atom_site_occupancy
  Mo  Mo1       1.0  0.46018  0.33386  0.94295  1.0000
  Mo  Mo2       1.0  0.53981  0.66614  0.05705  1.0000
  Mo  Mo3       1.0  0.03733  0.63533  0.08878  1.0000
  Mo  Mo4       1.0  0.96267  0.36467  0.91122  1.0000
  H   H1        1.0  0.85548  0.51871  0.36562  1.0000
  H   H2        1.0  0.14452  0.48129  0.63438  1.0000
  H   H3        1.0  0.35742  0.07573  0.24240  1.0000
  H   H4        1.0  0.64258  0.92427  0.75760  1.0000
  H   H5        1.0  0.02013  0.91925  0.84723  1.0000
  H   H6        1.0  0.97987  0.08075  0.15277  1.0000
  H   H7        1.0  0.00880  0.14750  0.66723  1.0000
  H   H8        1.0  0.99120  0.85250  0.33277  1.0000
  H   H9        1.0  0.28850  0.85979  0.64231  1.0000
  H   H10       1.0  0.71150  0.14021  0.35769  1.0000
  H   H11       1.0  0.46490  0.86839  0.39159  1.0000
  H   H12       1.0  0.53510  0.13161  0.60841  1.0000
  C   C1        1.0  0.02055  0.23909  0.48818  1.0000
  C   C2        1.0  0.97945  0.76091  0.51182  1.0000
  C   C3        1.0  0.84528  0.37944  0.52659  1.0000
  C   C4        1.0  0.15472  0.62056  0.47341  1.0000
  C   C5        1.0  0.27710  0.09099  0.33722  1.0000
  C   C6        1.0  0.72290  0.90901  0.66278  1.0000
  C   C7        1.0  0.14208  0.80874  0.82101  1.0000
  C   C8        1.0  0.85792  0.19126  0.17899  1.0000
  C   C9        1.0  0.58656  0.55216  0.62609  1.0000
  C   C10       1.0  0.41344  0.44784  0.37391  1.0000
  C   C11       1.0  0.08561  0.12887  0.57196  1.0000
  C   C12       1.0  0.91439  0.87113  0.42804  1.0000
  C   C13       1.0  0.41378  0.63144  0.72174  1.0000
  C   C14       1.0  0.58622  0.36856  0.27826  1.0000
  C   C15       1.0  0.33955  0.97745  0.41948  1.0000
  C   C16       1.0  0.66045  0.02255  0.58052  1.0000
  N   N1        1.0  0.78689  0.50253  0.45506  1.0000
  N   N2        1.0  0.21311  0.49747  0.54494  1.0000
  N   N3        1.0  0.11688  0.22069  0.37087  1.0000
  N   N4        1.0  0.88312  0.77931  0.62913  1.0000
  N   N5        1.0  0.72050  0.40825  0.63628  1.0000
  N   N6        1.0  0.27950  0.59175  0.36372  1.0000
  N   N7        1.0  0.62200  0.61492  0.51691  1.0000
  N   N8        1.0  0.37801  0.38508  0.48309  1.0000
  N   N9        1.0  0.34996  0.57072  0.82668  1.0000
  N   N10       1.0  0.65004  0.42928  0.17332  1.0000
  N   N11       1.0  0.24370  0.99785  0.53663  1.0000
  N   N12       1.0  0.75630  0.00215  0.46337  1.0000
  N   N13       1.0  0.28552  0.78106  0.71594  1.0000
  N   N14       1.0  0.71448  0.21894  0.28406  1.0000
  N   N15       1.0  0.17939  0.68307  0.88834  1.0000
  N   N16       1.0  0.82061  0.31693  0.11166  1.0000
  O   O1        1.0  0.16591  0.39046  0.98572  1.0000
  O   O2        1.0  0.83409  0.60954  0.01428  1.0000
  O   O3        1.0  0.32458  0.56858  0.07431  1.0000
  O   O4        1.0  0.67542  0.43142  0.92569  1.0000
  O   O5        1.0  0.50579  0.20556  0.05529  1.0000
  O   O6        1.0  0.49421  0.79445  0.94471  1.0000
  O   O7        1.0  0.95630  0.56090  0.22712  1.0000
  O   O8        1.0  0.04370  0.43910  0.77288  1.0000
  O   O9        1.0  0.96770  0.83744  0.11510  1.0000
  O   O10       1.0  0.03230  0.16257  0.88490  1.0000
  O   O11       1.0  0.52701  0.21208  0.81944  1.0000
  O   O12       1.0  0.47298  0.78792  0.18056  1.0000
