data_image0
_chemical_formula_structural       K4H24C24S4N4O24
_chemical_formula_sum              "K4 H24 C24 S4 N4 O24"
_cell_length_a       7.14147
_cell_length_b       10.7337
_cell_length_c       12.6062
_cell_angle_alpha    106.536
_cell_angle_beta     90.0001
_cell_angle_gamma    89.9999

_space_group_name_H-M_alt    "P 1"
_space_group_IT_number       1

loop_
  _space_group_symop_operation_xyz
  'x, y, z'

loop_
  _atom_site_type_symbol
  _atom_site_label
  _atom_site_symmetry_multiplicity
  _atom_site_fract_x
  _atom_site_fract_y
  _atom_site_fract_z
  _atom_site_occupancy
  K   K1        1.0  0.45595  0.56193  0.25924  1.0000
  K   K2        1.0  0.95596  0.43807  0.24076  1.0000
  K   K3        1.0  0.54405  0.43808  0.74077  1.0000
  K   K4        1.0  0.04405  0.56193  0.75924  1.0000
  H   H1        1.0  0.08813  0.68498  0.41083  1.0000
  H   H2        1.0  0.58813  0.31502  0.08917  1.0000
  H   H3        1.0  0.91187  0.31502  0.58917  1.0000
  H   H4        1.0  0.41187  0.68497  0.91083  1.0000
  H   H5        1.0  0.04290  0.76494  0.32975  1.0000
  H   H6        1.0  0.54290  0.23506  0.17025  1.0000
  H   H7        1.0  0.95709  0.23506  0.67025  1.0000
  H   H8        1.0  0.45709  0.76494  0.82975  1.0000
  H   H9        1.0  0.63835  0.90043  0.08611  1.0000
  H   H10       1.0  0.13835  0.09957  0.41389  1.0000
  H   H11       1.0  0.36165  0.09957  0.91389  1.0000
  H   H12       1.0  0.86165  0.90043  0.58611  1.0000
  H   H13       1.0  0.84663  0.09561  0.13892  1.0000
  H   H14       1.0  0.34662  0.90438  0.36108  1.0000
  H   H15       1.0  0.15338  0.90438  0.86108  1.0000
  H   H16       1.0  0.65338  0.09562  0.63892  1.0000
  H   H17       1.0  0.32662  0.84302  0.11560  1.0000
  H   H18       1.0  0.82662  0.15697  0.38440  1.0000
  H   H19       1.0  0.67339  0.15698  0.88440  1.0000
  H   H20       1.0  0.17338  0.84303  0.61560  1.0000
  H   H21       1.0  0.11881  0.64990  0.06646  1.0000
  H   H22       1.0  0.61881  0.35009  0.43354  1.0000
  H   H23       1.0  0.88119  0.35009  0.93354  1.0000
  H   H24       1.0  0.38119  0.64991  0.56646  1.0000
  C   C1        1.0  0.86656  0.76470  0.07243  1.0000
  C   C2        1.0  0.36656  0.23530  0.42757  1.0000
  C   C3        1.0  0.13344  0.23530  0.92757  1.0000
  C   C4        1.0  0.63344  0.76471  0.57243  1.0000
  C   C5        1.0  0.78880  0.88905  0.09340  1.0000
  C   C6        1.0  0.28880  0.11095  0.40660  1.0000
  C   C7        1.0  0.21120  0.11095  0.90660  1.0000
  C   C8        1.0  0.71120  0.88905  0.59341  1.0000
  C   C9        1.0  0.90405  0.99797  0.12338  1.0000
  C   C10       1.0  0.40405  0.00203  0.37662  1.0000
  C   C11       1.0  0.09595  0.00203  0.87662  1.0000
  C   C12       1.0  0.59595  0.99797  0.62338  1.0000
  C   C13       1.0  0.09676  0.97867  0.13001  1.0000
  C   C14       1.0  0.59676  0.02133  0.36999  1.0000
  C   C15       1.0  0.90324  0.02133  0.86999  1.0000
  C   C16       1.0  0.40324  0.97867  0.63001  1.0000
  C   C17       1.0  0.17623  0.85519  0.11004  1.0000
  C   C18       1.0  0.67623  0.14480  0.38996  1.0000
  C   C19       1.0  0.82377  0.14481  0.88996  1.0000
  C   C20       1.0  0.32377  0.85520  0.61004  1.0000
  C   C21       1.0  0.05961  0.74711  0.08179  1.0000
  C   C22       1.0  0.55961  0.25289  0.41821  1.0000
  C   C23       1.0  0.94039  0.25289  0.91821  1.0000
  C   C24       1.0  0.44039  0.74711  0.58179  1.0000
  S   S1        1.0  0.71850  0.62449  0.03158  1.0000
  S   S2        1.0  0.21849  0.37550  0.46842  1.0000
  S   S3        1.0  0.28150  0.37551  0.96842  1.0000
  S   S4        1.0  0.78150  0.62450  0.53158  1.0000
  N   N1        1.0  0.21945  0.09135  0.15532  1.0000
  N   N2        1.0  0.71945  0.90864  0.34468  1.0000
  N   N3        1.0  0.78055  0.90864  0.84467  1.0000
  N   N4        1.0  0.28055  0.09136  0.65532  1.0000
  O   O1        1.0  0.75670  0.55128  0.11107  1.0000
  O   O2        1.0  0.25670  0.44871  0.38893  1.0000
  O   O3        1.0  0.24329  0.44872  0.88893  1.0000
  O   O4        1.0  0.74329  0.55128  0.61107  1.0000
  O   O5        1.0  0.52567  0.67463  0.03880  1.0000
  O   O6        1.0  0.02566  0.32537  0.46120  1.0000
  O   O7        1.0  0.47433  0.32538  0.96120  1.0000
  O   O8        1.0  0.97433  0.67463  0.53880  1.0000
  O   O9        1.0  0.77691  0.55634  0.91811  1.0000
  O   O10       1.0  0.27691  0.44366  0.58188  1.0000
  O   O11       1.0  0.22308  0.44366  0.08189  1.0000
  O   O12       1.0  0.72308  0.55634  0.41811  1.0000
  O   O13       1.0  0.14813  0.20108  0.18574  1.0000
  O   O14       1.0  0.64812  0.79891  0.31426  1.0000
  O   O15       1.0  0.85188  0.79891  0.81426  1.0000
  O   O16       1.0  0.35188  0.20109  0.68574  1.0000
  O   O17       1.0  0.39216  0.07290  0.14440  1.0000
  O   O18       1.0  0.89215  0.92709  0.35560  1.0000
  O   O19       1.0  0.60785  0.92709  0.85560  1.0000
  O   O20       1.0  0.10785  0.07291  0.64440  1.0000
  O   O21       1.0  0.12812  0.69752  0.33951  1.0000
  O   O22       1.0  0.62813  0.30248  0.16049  1.0000
  O   O23       1.0  0.87187  0.30248  0.66049  1.0000
  O   O24       1.0  0.37187  0.69752  0.83951  1.0000
