data_image0
_chemical_formula_structural       Gd4H32C20O32
_chemical_formula_sum              "Gd4 H32 C20 O32"
_cell_length_a       9.65401
_cell_length_b       9.654
_cell_length_c       13.7436
_cell_angle_alpha    99.8739
_cell_angle_beta     99.874
_cell_angle_gamma    120.895

_space_group_name_H-M_alt    "P 1"
_space_group_IT_number       1

loop_
  _space_group_symop_operation_xyz
  'x, y, z'

loop_
  _atom_site_type_symbol
  _atom_site_label
  _atom_site_symmetry_multiplicity
  _atom_site_fract_x
  _atom_site_fract_y
  _atom_site_fract_z
  _atom_site_occupancy
  Gd  Gd1       1.0  0.00151  0.25139  0.50242  1.0000
  Gd  Gd2       1.0  0.24866  0.49858  0.99758  1.0000
  Gd  Gd3       1.0  0.99855  0.74865  0.49758  1.0000
  Gd  Gd4       1.0  0.75137  0.50147  0.00242  1.0000
  H   H1        1.0  0.45468  0.85904  0.51410  1.0000
  H   H2        1.0  0.84425  0.94095  0.98629  1.0000
  H   H3        1.0  0.64100  0.04532  0.98593  1.0000
  H   H4        1.0  0.55903  0.65577  0.51371  1.0000
  H   H5        1.0  0.54536  0.14097  0.48591  1.0000
  H   H6        1.0  0.15574  0.05908  0.01370  1.0000
  H   H7        1.0  0.35899  0.95470  0.01406  1.0000
  H   H8        1.0  0.44101  0.34423  0.48632  1.0000
  H   H9        1.0  0.50602  0.90482  0.64831  1.0000
  H   H10       1.0  0.75593  0.85740  0.85209  1.0000
  H   H11       1.0  0.59520  0.99399  0.85172  1.0000
  H   H12       1.0  0.64260  0.74409  0.64791  1.0000
  H   H13       1.0  0.49401  0.09518  0.35170  1.0000
  H   H14       1.0  0.24405  0.14260  0.14791  1.0000
  H   H15       1.0  0.40479  0.00602  0.14827  1.0000
  H   H16       1.0  0.35744  0.25593  0.35211  1.0000
  H   H17       1.0  0.80337  0.90629  0.34110  1.0000
  H   H18       1.0  0.06528  0.46250  0.15887  1.0000
  H   H19       1.0  0.59383  0.69687  0.15884  1.0000
  H   H20       1.0  0.03771  0.43483  0.34116  1.0000
  H   H21       1.0  0.19677  0.09378  0.65887  1.0000
  H   H22       1.0  0.93479  0.53762  0.84115  1.0000
  H   H23       1.0  0.40625  0.30328  0.84112  1.0000
  H   H24       1.0  0.96241  0.56524  0.65886  1.0000
  H   H25       1.0  0.75029  0.00465  0.27963  1.0000
  H   H26       1.0  0.22505  0.47064  0.22028  1.0000
  H   H27       1.0  0.49466  0.74876  0.22022  1.0000
  H   H28       1.0  0.02851  0.27436  0.27985  1.0000
  H   H29       1.0  0.24913  0.99492  0.72028  1.0000
  H   H30       1.0  0.77460  0.52885  0.77979  1.0000
  H   H31       1.0  0.50492  0.25068  0.77969  1.0000
  H   H32       1.0  0.97100  0.72530  0.72024  1.0000
  C   C1        1.0  0.29714  0.65225  0.56356  1.0000
  C   C2        1.0  0.58804  0.73338  0.93654  1.0000
  C   C3        1.0  0.84778  0.20288  0.93645  1.0000
  C   C4        1.0  0.76664  0.91198  0.56345  1.0000
  C   C5        1.0  0.70290  0.34775  0.43644  1.0000
  C   C6        1.0  0.41195  0.26667  0.06346  1.0000
  C   C7        1.0  0.15220  0.79715  0.06353  1.0000
  C   C8        1.0  0.23341  0.08804  0.43657  1.0000
  C   C9        1.0  0.47047  0.80649  0.57694  1.0000
  C   C10       1.0  0.72874  0.89338  0.92326  1.0000
  C   C11       1.0  0.69355  0.02954  0.92308  1.0000
  C   C12       1.0  0.60663  0.77129  0.57674  1.0000
  C   C13       1.0  0.52957  0.19352  0.42308  1.0000
  C   C14       1.0  0.27126  0.10665  0.07673  1.0000
  C   C15       1.0  0.30644  0.97049  0.07691  1.0000
  C   C16       1.0  0.39341  0.22871  0.42327  1.0000
  C   C17       1.0  0.07902  0.42096  0.74999  1.0000
  C   C18       1.0  0.17117  0.32882  0.75000  1.0000
  C   C19       1.0  0.92096  0.57901  0.24999  1.0000
  C   C20       1.0  0.82880  0.67115  0.24999  1.0000
  O   O1        1.0  0.27715  0.51120  0.56154  1.0000
  O   O2        1.0  0.44892  0.71519  0.93851  1.0000
  O   O3        1.0  0.98885  0.22289  0.93849  1.0000
  O   O4        1.0  0.78482  0.05108  0.56146  1.0000
  O   O5        1.0  0.72290  0.48883  0.43849  1.0000
  O   O6        1.0  0.55105  0.28482  0.06145  1.0000
  O   O7        1.0  0.01116  0.77717  0.06154  1.0000
  O   O8        1.0  0.21521  0.94889  0.43852  1.0000
  O   O9        1.0  0.17486  0.67180  0.55291  1.0000
  O   O10       1.0  0.61841  0.62183  0.94709  1.0000
  O   O11       1.0  0.82818  0.32513  0.94707  1.0000
  O   O12       1.0  0.87819  0.88159  0.55293  1.0000
  O   O13       1.0  0.82515  0.32817  0.44704  1.0000
  O   O14       1.0  0.38160  0.37825  0.05297  1.0000
  O   O15       1.0  0.17176  0.67487  0.05288  1.0000
  O   O16       1.0  0.12190  0.11842  0.44714  1.0000
  O   O17       1.0  0.00434  0.41494  0.66260  1.0000
  O   O18       1.0  0.25180  0.34077  0.83742  1.0000
  O   O19       1.0  0.08503  0.49565  0.83739  1.0000
  O   O20       1.0  0.15924  0.24819  0.66259  1.0000
  O   O21       1.0  0.99564  0.58503  0.33740  1.0000
  O   O22       1.0  0.74819  0.65921  0.16258  1.0000
  O   O23       1.0  0.91494  0.50433  0.16260  1.0000
  O   O24       1.0  0.84076  0.75180  0.33742  1.0000
  O   O25       1.0  0.77915  0.99633  0.34876  1.0000
  O   O26       1.0  0.14743  0.43033  0.15116  1.0000
  O   O27       1.0  0.50405  0.72146  0.15122  1.0000
  O   O28       1.0  0.07016  0.35287  0.34884  1.0000
  O   O29       1.0  0.22124  0.00391  0.65123  1.0000
  O   O30       1.0  0.85274  0.56994  0.84884  1.0000
  O   O31       1.0  0.49617  0.27890  0.84876  1.0000
  O   O32       1.0  0.93014  0.64732  0.65117  1.0000
