data_image0
_chemical_formula_structural       Cu6H30C34N16Cl8
_chemical_formula_sum              "Cu6 H30 C34 N16 Cl8"
_cell_length_a       9.8821
_cell_length_b       10.5373
_cell_length_c       11.7972
_cell_angle_alpha    94.1323
_cell_angle_beta     91.9305
_cell_angle_gamma    115.918

_space_group_name_H-M_alt    "P 1"
_space_group_IT_number       1

loop_
  _space_group_symop_operation_xyz
  'x, y, z'

loop_
  _atom_site_type_symbol
  _atom_site_label
  _atom_site_symmetry_multiplicity
  _atom_site_fract_x
  _atom_site_fract_y
  _atom_site_fract_z
  _atom_site_occupancy
  Cu  Cu1       1.0  0.56042  0.14221  0.41163  1.0000
  Cu  Cu2       1.0  0.43950  0.85740  0.58865  1.0000
  Cu  Cu3       1.0  0.62438  0.86478  0.24328  1.0000
  Cu  Cu4       1.0  0.37546  0.13530  0.75705  1.0000
  Cu  Cu5       1.0  0.85199  0.01949  0.00069  1.0000
  Cu  Cu6       1.0  0.14837  0.97984  0.99882  1.0000
  H   H1        1.0  0.47674  0.37080  0.51767  1.0000
  H   H2        1.0  0.52313  0.62867  0.48240  1.0000
  H   H3        1.0  0.25685  0.43074  0.48740  1.0000
  H   H4        1.0  0.74327  0.56915  0.51266  1.0000
  H   H5        1.0  0.06259  0.29506  0.32544  1.0000
  H   H6        1.0  0.93758  0.70512  0.67442  1.0000
  H   H7        1.0  0.10321  0.12045  0.19396  1.0000
  H   H8        1.0  0.89690  0.87970  0.80585  1.0000
  H   H9        1.0  0.46137  0.78176  0.00812  1.0000
  H   H10       1.0  0.53896  0.21823  0.99183  1.0000
  H   H11       1.0  0.34733  0.84108  0.92954  1.0000
  H   H12       1.0  0.65325  0.15915  0.07038  1.0000
  H   H13       1.0  0.21310  0.58293  0.94101  1.0000
  H   H14       1.0  0.78707  0.41716  0.05885  1.0000
  H   H15       1.0  0.11691  0.67269  0.00809  1.0000
  H   H16       1.0  0.88347  0.32774  0.99167  1.0000
  H   H17       1.0  0.21605  0.65506  0.19935  1.0000
  H   H18       1.0  0.78379  0.34515  0.80048  1.0000
  H   H19       1.0  0.11829  0.48514  0.12310  1.0000
  H   H20       1.0  0.88156  0.51510  0.87672  1.0000
  H   H21       1.0  0.76671  0.46191  0.25225  1.0000
  H   H22       1.0  0.23355  0.53844  0.74781  1.0000
  H   H23       1.0  0.02651  0.60384  0.35334  1.0000
  H   H24       1.0  0.97365  0.39674  0.64679  1.0000
  H   H25       1.0  0.11467  0.86146  0.40726  1.0000
  H   H26       1.0  0.88515  0.13913  0.59292  1.0000
  H   H27       1.0  0.94088  0.97224  0.36062  1.0000
  H   H28       1.0  0.05859  0.02801  0.63938  1.0000
  H   H29       1.0  0.27646  0.34642  0.07524  1.0000
  H   H30       1.0  0.72341  0.65356  0.92489  1.0000
  C   C1        1.0  0.39200  0.32146  0.44628  1.0000
  C   C2        1.0  0.60790  0.67813  0.55375  1.0000
  C   C3        1.0  0.26885  0.35124  0.43008  1.0000
  C   C4        1.0  0.73119  0.64859  0.56994  1.0000
  C   C5        1.0  0.16303  0.27821  0.33890  1.0000
  C   C6        1.0  0.83704  0.72178  0.66102  1.0000
  C   C7        1.0  0.18464  0.18025  0.26516  1.0000
  C   C8        1.0  0.81535  0.81972  0.73474  1.0000
  C   C9        1.0  0.31257  0.15889  0.28493  1.0000
  C   C10       1.0  0.68724  0.84084  0.71503  1.0000
  C   C11       1.0  0.34960  0.05731  0.21985  1.0000
  C   C12       1.0  0.65012  0.94233  0.78016  1.0000
  C   C13       1.0  0.37614  0.90262  0.10670  1.0000
  C   C14       1.0  0.62404  0.09728  0.89329  1.0000
  C   C15       1.0  0.35867  0.79763  0.00926  1.0000
  C   C16       1.0  0.64174  0.20247  0.99061  1.0000
  C   C17       1.0  0.21905  0.65566  0.01471  1.0000
  C   C18       1.0  0.78120  0.34452  0.98511  1.0000
  C   C19       1.0  0.21949  0.58695  0.12544  1.0000
  C   C20       1.0  0.78047  0.41321  0.87446  1.0000
  C   C21       1.0  0.35477  0.56189  0.14565  1.0000
  C   C22       1.0  0.64510  0.43817  0.85445  1.0000
  C   C23       1.0  0.57214  0.57727  0.19762  1.0000
  C   C24       1.0  0.42769  0.42277  0.80251  1.0000
  C   C25       1.0  0.72374  0.64547  0.25281  1.0000
  C   C26       1.0  0.27615  0.35470  0.74727  1.0000
  C   C27       1.0  0.81189  0.57561  0.27558  1.0000
  C   C28       1.0  0.18818  0.42473  0.72449  1.0000
  C   C29       1.0  0.95441  0.65384  0.33113  1.0000
  C   C30       1.0  0.04564  0.34664  0.66897  1.0000
  C   C31       1.0  0.00433  0.79847  0.36208  1.0000
  C   C32       1.0  0.99552  0.20200  0.63805  1.0000
  C   C33       1.0  0.90900  0.86035  0.33765  1.0000
  C   C34       1.0  0.09070  0.13995  0.66240  1.0000
  N   N1        1.0  0.41324  0.22794  0.37557  1.0000
  N   N2        1.0  0.58654  0.77160  0.62445  1.0000
  N   N3        1.0  0.45672  0.02974  0.26869  1.0000
  N   N4        1.0  0.54276  0.96973  0.73152  1.0000
  N   N5        1.0  0.29531  0.97979  0.11739  1.0000
  N   N6        1.0  0.70484  0.02009  0.88247  1.0000
  N   N7        1.0  0.47259  0.93141  0.19883  1.0000
  N   N8        1.0  0.52718  0.06828  0.80135  1.0000
  N   N9        1.0  0.48967  0.65326  0.19607  1.0000
  N   N10       1.0  0.51014  0.34676  0.80407  1.0000
  N   N11       1.0  0.36169  0.43869  0.11698  1.0000
  N   N12       1.0  0.63816  0.56136  0.88310  1.0000
  N   N13       1.0  0.49763  0.44498  0.14911  1.0000
  N   N14       1.0  0.50221  0.55509  0.85100  1.0000
  N   N15       1.0  0.77146  0.78541  0.28447  1.0000
  N   N16       1.0  0.22827  0.21474  0.71558  1.0000
  Cl  Cl1       1.0  0.71680  0.31914  0.53473  1.0000
  Cl  Cl2       1.0  0.28312  0.68075  0.46549  1.0000
  Cl  Cl3       1.0  0.66714  0.99279  0.44269  1.0000
  Cl  Cl4       1.0  0.33318  0.00692  0.55760  1.0000
  Cl  Cl5       1.0  0.81483  0.07653  0.18359  1.0000
  Cl  Cl6       1.0  0.18526  0.92315  0.81552  1.0000
  Cl  Cl7       1.0  0.89705  0.81638  0.02511  1.0000
  Cl  Cl8       1.0  0.10354  0.18286  0.97500  1.0000
