data_image0
_chemical_formula_structural       Cu4H16C28S4N12O4
_chemical_formula_sum              "Cu4 H16 C28 S4 N12 O4"
_cell_length_a       5.06778
_cell_length_b       8.48477
_cell_length_c       19.5722
_cell_angle_alpha    87.8001
_cell_angle_beta     82.5685
_cell_angle_gamma    72.6006

_space_group_name_H-M_alt    "P 1"
_space_group_IT_number       1

loop_
  _space_group_symop_operation_xyz
  'x, y, z'

loop_
  _atom_site_type_symbol
  _atom_site_label
  _atom_site_symmetry_multiplicity
  _atom_site_fract_x
  _atom_site_fract_y
  _atom_site_fract_z
  _atom_site_occupancy
  Cu  Cu1       1.0  0.52288  0.55635  0.94864  1.0000
  Cu  Cu2       1.0  0.02735  0.44419  0.05134  1.0000
  Cu  Cu3       1.0  0.82837  0.94435  0.44868  1.0000
  Cu  Cu4       1.0  0.22158  0.05609  0.55129  1.0000
  H   H1        1.0  0.73648  0.80972  0.99357  1.0000
  H   H2        1.0  0.54156  0.19076  0.00633  1.0000
  H   H3        1.0  0.29705  0.69063  0.49368  1.0000
  H   H4        1.0  0.47899  0.30993  0.50641  1.0000
  H   H5        1.0  0.02250  0.05949  0.81597  1.0000
  H   H6        1.0  0.89596  0.93877  0.18404  1.0000
  H   H7        1.0  0.82961  0.43859  0.31599  1.0000
  H   H8        1.0  0.58862  0.55928  0.68405  1.0000
  H   H9        1.0  0.98345  0.01373  0.94272  1.0000
  H   H10       1.0  0.94049  0.98614  0.05738  1.0000
  H   H11       1.0  0.74715  0.48589  0.44267  1.0000
  H   H12       1.0  0.67547  0.51371  0.55729  1.0000
  H   H13       1.0  0.58853  0.69474  0.80170  1.0000
  H   H14       1.0  0.08462  0.30585  0.19804  1.0000
  H   H15       1.0  0.03283  0.80610  0.30190  1.0000
  H   H16       1.0  0.14022  0.19463  0.69830  1.0000
  C   C1        1.0  0.78269  0.89162  0.61618  1.0000
  C   C2        1.0  0.28944  0.10864  0.38376  1.0000
  C   C3        1.0  0.42358  0.60850  0.11622  1.0000
  C   C4        1.0  0.14861  0.39185  0.88381  1.0000
  C   C5        1.0  0.76146  0.83314  0.93828  1.0000
  C   C6        1.0  0.53355  0.16711  0.06163  1.0000
  C   C7        1.0  0.34456  0.66702  0.43839  1.0000
  C   C8        1.0  0.44881  0.33324  0.56171  1.0000
  C   C9        1.0  0.92144  0.97062  0.83943  1.0000
  C   C10       1.0  0.73034  0.02839  0.16054  1.0000
  C   C11       1.0  0.64044  0.52824  0.33950  1.0000
  C   C12       1.0  0.51065  0.47055  0.66059  1.0000
  C   C13       1.0  0.80867  0.88058  0.79844  1.0000
  C   C14       1.0  0.48651  0.11898  0.20143  1.0000
  C   C15       1.0  0.43782  0.61894  0.29857  1.0000
  C   C16       1.0  0.35687  0.38056  0.70156  1.0000
  C   C17       1.0  0.89823  0.94510  0.91006  1.0000
  C   C18       1.0  0.75331  0.05458  0.08994  1.0000
  C   C19       1.0  0.59268  0.55443  0.41009  1.0000
  C   C20       1.0  0.55755  0.44514  0.58995  1.0000
  C   C21       1.0  0.67545  0.77001  0.83084  1.0000
  C   C22       1.0  0.27594  0.23024  0.16895  1.0000
  C   C23       1.0  0.19480  0.73036  0.33102  1.0000
  C   C24       1.0  0.25603  0.26998  0.66916  1.0000
  C   C25       1.0  0.83890  0.90275  0.72436  1.0000
  C   C26       1.0  0.46469  0.09720  0.27554  1.0000
  C   C27       1.0  0.49034  0.59709  0.22447  1.0000
  C   C28       1.0  0.31317  0.40270  0.77564  1.0000
  S   S1        1.0  0.64915  0.84770  0.54634  1.0000
  S   S2        1.0  0.04258  0.15271  0.45367  1.0000
  S   S3        1.0  0.24657  0.65252  0.04633  1.0000
  S   S4        1.0  0.94529  0.34792  0.95363  1.0000
  N   N1        1.0  0.96280  0.97571  0.62114  1.0000
  N   N2        1.0  0.55883  0.02482  0.37882  1.0000
  N   N3        1.0  0.68807  0.52478  0.12119  1.0000
  N   N4        1.0  0.33379  0.47584  0.87886  1.0000
  N   N5        1.0  0.65270  0.74651  0.89951  1.0000
  N   N6        1.0  0.29906  0.25396  0.10029  1.0000
  N   N7        1.0  0.14902  0.75404  0.39969  1.0000
  N   N8        1.0  0.30164  0.24648  0.60048  1.0000
  N   N9        1.0  0.99652  0.98249  0.68984  1.0000
  N   N10       1.0  0.66784  0.01794  0.31010  1.0000
  N   N11       1.0  0.72819  0.51788  0.18992  1.0000
  N   N12       1.0  0.43641  0.48240  0.81016  1.0000
  O   O1        1.0  0.69869  0.84019  0.68182  1.0000
  O   O2        1.0  0.21933  0.15973  0.31809  1.0000
  O   O3        1.0  0.28765  0.65953  0.18188  1.0000
  O   O4        1.0  0.13026  0.34033  0.81816  1.0000
