data_image0
_chemical_formula_structural       Cd2H38C34N4O14
_chemical_formula_sum              "Cd2 H38 C34 N4 O14"
_cell_length_a       10.2663
_cell_length_b       10.3412
_cell_length_c       9.94669
_cell_angle_alpha    82.3504
_cell_angle_beta     77.1904
_cell_angle_gamma    59.2539

_space_group_name_H-M_alt    "P 1"
_space_group_IT_number       1

loop_
  _space_group_symop_operation_xyz
  'x, y, z'

loop_
  _atom_site_type_symbol
  _atom_site_label
  _atom_site_symmetry_multiplicity
  _atom_site_fract_x
  _atom_site_fract_y
  _atom_site_fract_z
  _atom_site_occupancy
  Cd  Cd1       1.0  0.63964  0.20222  0.99413  1.0000
  Cd  Cd2       1.0  0.36037  0.79777  0.00588  1.0000
  H   H1        1.0  0.48370  0.49116  0.84495  1.0000
  H   H2        1.0  0.51630  0.50883  0.15506  1.0000
  H   H3        1.0  0.63595  0.47186  0.86679  1.0000
  H   H4        1.0  0.36406  0.52813  0.13320  1.0000
  H   H5        1.0  0.56893  0.84913  0.70661  1.0000
  H   H6        1.0  0.43107  0.15087  0.29338  1.0000
  H   H7        1.0  0.65042  0.92238  0.10733  1.0000
  H   H8        1.0  0.34958  0.07761  0.89267  1.0000
  H   H9        1.0  0.70625  0.95256  0.23160  1.0000
  H   H10       1.0  0.29374  0.04744  0.76841  1.0000
  H   H11       1.0  0.11373  0.21537  0.99087  1.0000
  H   H12       1.0  0.88627  0.78463  0.00913  1.0000
  H   H13       1.0  0.13672  0.51472  0.23595  1.0000
  H   H14       1.0  0.86329  0.48527  0.76405  1.0000
  H   H15       1.0  0.85716  0.62576  0.32898  1.0000
  H   H16       1.0  0.14284  0.37424  0.67102  1.0000
  H   H17       1.0  0.70915  0.52139  0.26045  1.0000
  H   H18       1.0  0.29086  0.47861  0.73955  1.0000
  H   H19       1.0  0.96845  0.04552  0.82377  1.0000
  H   H20       1.0  0.03156  0.95447  0.17622  1.0000
  H   H21       1.0  0.13366  0.87487  0.62489  1.0000
  H   H22       1.0  0.86634  0.12513  0.37510  1.0000
  H   H23       1.0  0.00955  0.79098  0.48971  1.0000
  H   H24       1.0  0.99044  0.20902  0.51029  1.0000
  H   H25       1.0  0.58329  0.03855  0.77274  1.0000
  H   H26       1.0  0.41671  0.96145  0.22726  1.0000
  H   H27       1.0  0.52743  0.82844  0.42803  1.0000
  H   H28       1.0  0.47257  0.17157  0.57196  1.0000
  H   H29       1.0  0.39659  0.85219  0.58630  1.0000
  H   H30       1.0  0.60340  0.14782  0.41370  1.0000
  H   H31       1.0  0.69464  0.56219  0.48892  1.0000
  H   H32       1.0  0.30535  0.43782  0.51108  1.0000
  H   H33       1.0  0.58391  0.58552  0.65614  1.0000
  H   H34       1.0  0.41607  0.41449  0.34385  1.0000
  H   H35       1.0  0.45329  0.62978  0.39297  1.0000
  H   H36       1.0  0.54670  0.37023  0.60702  1.0000
  H   H37       1.0  0.35598  0.64055  0.56502  1.0000
  H   H38       1.0  0.64401  0.35946  0.43497  1.0000
  C   C1        1.0  0.81722  0.29547  0.08468  1.0000
  C   C2        1.0  0.18278  0.70453  0.91533  1.0000
  C   C3        1.0  0.90397  0.36023  0.12392  1.0000
  C   C4        1.0  0.09603  0.63977  0.87609  1.0000
  C   C5        1.0  0.05992  0.30340  0.06645  1.0000
  C   C6        1.0  0.94009  0.69660  0.93355  1.0000
  C   C7        1.0  0.14488  0.35750  0.10695  1.0000
  C   C8        1.0  0.85513  0.64249  0.89304  1.0000
  C   C9        1.0  0.31283  0.29385  0.04942  1.0000
  C   C10       1.0  0.68718  0.70614  0.95057  1.0000
  C   C11       1.0  0.07099  0.47212  0.20414  1.0000
  C   C12       1.0  0.92902  0.52788  0.79585  1.0000
  C   C13       1.0  0.91456  0.53251  0.25822  1.0000
  C   C14       1.0  0.08545  0.46748  0.74178  1.0000
  C   C15       1.0  0.83136  0.47600  0.21883  1.0000
  C   C16       1.0  0.16865  0.52400  0.78117  1.0000
  C   C17       1.0  0.92147  0.00363  0.76388  1.0000
  C   C18       1.0  0.07853  0.99637  0.23612  1.0000
  C   C19       1.0  0.01175  0.90953  0.65279  1.0000
  C   C20       1.0  0.98824  0.09048  0.34721  1.0000
  C   C21       1.0  0.94407  0.86210  0.57913  1.0000
  C   C22       1.0  0.05593  0.13791  0.42087  1.0000
  C   C23       1.0  0.78754  0.90797  0.62017  1.0000
  C   C24       1.0  0.21246  0.09203  0.37983  1.0000
  C   C25       1.0  0.70540  0.99958  0.73509  1.0000
  C   C26       1.0  0.29461  0.00041  0.26491  1.0000
  C   C27       1.0  0.71464  0.86271  0.53462  1.0000
  C   C28       1.0  0.28535  0.13729  0.46538  1.0000
  C   C29       1.0  0.51845  0.79123  0.53656  1.0000
  C   C30       1.0  0.48154  0.20878  0.46343  1.0000
  C   C31       1.0  0.57686  0.62266  0.54826  1.0000
  C   C32       1.0  0.42313  0.37736  0.45174  1.0000
  C   C33       1.0  0.47046  0.58443  0.49839  1.0000
  C   C34       1.0  0.52953  0.41557  0.50160  1.0000
  N   N1        1.0  0.77092  0.04705  0.80474  1.0000
  N   N2        1.0  0.22908  0.95295  0.19526  1.0000
  N   N3        1.0  0.60178  0.83624  0.60248  1.0000
  N   N4        1.0  0.39821  0.16378  0.39752  1.0000
  O   O1        1.0  0.67997  0.33564  0.15128  1.0000
  O   O2        1.0  0.32003  0.66436  0.84873  1.0000
  O   O3        1.0  0.59380  0.41255  0.84300  1.0000
  O   O4        1.0  0.40620  0.58744  0.15700  1.0000
  O   O5        1.0  0.88064  0.20169  0.98829  1.0000
  O   O6        1.0  0.11936  0.79832  0.01171  1.0000
  O   O7        1.0  0.65071  0.00265  0.15441  1.0000
  O   O8        1.0  0.34930  0.99734  0.84559  1.0000
  O   O9        1.0  0.38373  0.18911  0.96260  1.0000
  O   O10       1.0  0.61628  0.81087  0.03740  1.0000
  O   O11       1.0  0.38421  0.34664  0.09450  1.0000
  O   O12       1.0  0.61579  0.65334  0.90551  1.0000
  O   O13       1.0  0.76094  0.85141  0.40662  1.0000
  O   O14       1.0  0.23906  0.14860  0.59338  1.0000
