data_image0
_chemical_formula_structural       Cd2H38C34N4O14
_chemical_formula_sum              "Cd2 H38 C34 N4 O14"
_cell_length_a       10.1725
_cell_length_b       10.1378
_cell_length_c       10.0951
_cell_angle_alpha    81.712
_cell_angle_beta     73.9193
_cell_angle_gamma    62.8028

_space_group_name_H-M_alt    "P 1"
_space_group_IT_number       1

loop_
  _space_group_symop_operation_xyz
  'x, y, z'

loop_
  _atom_site_type_symbol
  _atom_site_label
  _atom_site_symmetry_multiplicity
  _atom_site_fract_x
  _atom_site_fract_y
  _atom_site_fract_z
  _atom_site_occupancy
  Cd  Cd1       1.0  0.34868  0.31722  0.48767  1.0000
  Cd  Cd2       1.0  0.65132  0.68278  0.51234  1.0000
  H   H1        1.0  0.37909  0.16086  0.74267  1.0000
  H   H2        1.0  0.62092  0.83914  0.25734  1.0000
  H   H3        1.0  0.49944  0.03144  0.64439  1.0000
  H   H4        1.0  0.50055  0.96856  0.35561  1.0000
  H   H5        1.0  0.27654  0.56112  0.25189  1.0000
  H   H6        1.0  0.72346  0.43887  0.74811  1.0000
  H   H7        1.0  0.32973  0.60330  0.36963  1.0000
  H   H8        1.0  0.67027  0.39670  0.63037  1.0000
  H   H9        1.0  0.38653  0.69568  0.79750  1.0000
  H   H10       1.0  0.61347  0.30431  0.20251  1.0000
  H   H11       1.0  0.40045  0.46766  0.72773  1.0000
  H   H12       1.0  0.59955  0.53234  0.27227  1.0000
  H   H13       1.0  0.96384  0.70689  0.00411  1.0000
  H   H14       1.0  0.03616  0.29312  0.99589  1.0000
  H   H15       1.0  0.84840  0.62253  0.86102  1.0000
  H   H16       1.0  0.15160  0.37748  0.13898  1.0000
  H   H17       1.0  0.02018  0.45904  0.66147  1.0000
  H   H18       1.0  0.97981  0.54097  0.33853  1.0000
  H   H19       1.0  0.57756  0.64714  0.92706  1.0000
  H   H20       1.0  0.42244  0.35284  0.07294  1.0000
  H   H21       1.0  0.42973  0.68429  0.08056  1.0000
  H   H22       1.0  0.57028  0.31570  0.91945  1.0000
  H   H23       1.0  0.29769  0.94535  0.00123  1.0000
  H   H24       1.0  0.70233  0.05464  0.99876  1.0000
  H   H25       1.0  0.43001  0.90626  0.83893  1.0000
  H   H26       1.0  0.57002  0.09372  0.16106  1.0000
  H   H27       1.0  0.64005  0.85664  0.94513  1.0000
  H   H28       1.0  0.35998  0.14333  0.05487  1.0000
  H   H29       1.0  0.51721  0.87838  0.11227  1.0000
  H   H30       1.0  0.48282  0.12158  0.88773  1.0000
  H   H31       1.0  0.89563  0.28171  0.50518  1.0000
  H   H32       1.0  0.10437  0.71829  0.49483  1.0000
  H   H33       1.0  0.28146  0.95630  0.24078  1.0000
  H   H34       1.0  0.71852  0.04372  0.75920  1.0000
  H   H35       1.0  0.11147  0.87293  0.17510  1.0000
  H   H36       1.0  0.88851  0.12711  0.82487  1.0000
  H   H37       1.0  0.83011  0.00432  0.26891  1.0000
  H   H38       1.0  0.16987  0.99571  0.73108  1.0000
  C   C1        1.0  0.27748  0.50504  0.76183  1.0000
  C   C2        1.0  0.72251  0.49496  0.23818  1.0000
  C   C3        1.0  0.19024  0.59380  0.87731  1.0000
  C   C4        1.0  0.80975  0.40621  0.12269  1.0000
  C   C5        1.0  0.03307  0.63808  0.91406  1.0000
  C   C6        1.0  0.96692  0.36193  0.08594  1.0000
  C   C7        1.0  0.96978  0.59149  0.83596  1.0000
  C   C8        1.0  0.03022  0.40851  0.16403  1.0000
  C   C9        1.0  0.06449  0.50009  0.72434  1.0000
  C   C10       1.0  0.93550  0.49991  0.27566  1.0000
  C   C11       1.0  0.26108  0.63333  0.96776  1.0000
  C   C12       1.0  0.73892  0.36666  0.03225  1.0000
  C   C13       1.0  0.45534  0.71433  0.97069  1.0000
  C   C14       1.0  0.54467  0.28566  0.02932  1.0000
  C   C15       1.0  0.41762  0.87874  0.94957  1.0000
  C   C16       1.0  0.58241  0.12123  0.05043  1.0000
  C   C17       1.0  0.52141  0.91720  0.00383  1.0000
  C   C18       1.0  0.47863  0.08277  0.99618  1.0000
  C   C19       1.0  0.67581  0.22830  0.44897  1.0000
  C   C20       1.0  0.32418  0.77170  0.55103  1.0000
  C   C21       1.0  0.84448  0.15180  0.39223  1.0000
  C   C22       1.0  0.15551  0.84821  0.60776  1.0000
  C   C23       1.0  0.94092  0.19390  0.43155  1.0000
  C   C24       1.0  0.05908  0.80611  0.56845  1.0000
  C   C25       1.0  0.09777  0.12657  0.37359  1.0000
  C   C26       1.0  0.90222  0.87343  0.62642  1.0000
  C   C27       1.0  0.15870  0.01100  0.28116  1.0000
  C   C28       1.0  0.84129  0.98902  0.71883  1.0000
  C   C29       1.0  0.06337  0.96601  0.24378  1.0000
  C   C30       1.0  0.93662  0.03402  0.75620  1.0000
  C   C31       1.0  0.90636  0.03790  0.29695  1.0000
  C   C32       1.0  0.09362  0.96213  0.70304  1.0000
  C   C33       1.0  0.19657  0.18393  0.40665  1.0000
  C   C34       1.0  0.80343  0.81607  0.59335  1.0000
  N   N1        1.0  0.21555  0.45860  0.68749  1.0000
  N   N2        1.0  0.78444  0.54141  0.31251  1.0000
  N   N3        1.0  0.37110  0.67380  0.90237  1.0000
  N   N4        1.0  0.62890  0.32619  0.09763  1.0000
  O   O1        1.0  0.59412  0.22016  0.37573  1.0000
  O   O2        1.0  0.40588  0.77984  0.62427  1.0000
  O   O3        1.0  0.61776  0.29663  0.56150  1.0000
  O   O4        1.0  0.38223  0.70337  0.43851  1.0000
  O   O5        1.0  0.33985  0.12459  0.35331  1.0000
  O   O6        1.0  0.66015  0.87541  0.64669  1.0000
  O   O7        1.0  0.13244  0.29699  0.48346  1.0000
  O   O8        1.0  0.86756  0.70301  0.51655  1.0000
  O   O9        1.0  0.39597  0.11710  0.65635  1.0000
  O   O10       1.0  0.60403  0.88290  0.34366  1.0000
  O   O11       1.0  0.31837  0.52263  0.33433  1.0000
  O   O12       1.0  0.68164  0.47737  0.66567  1.0000
  O   O13       1.0  0.21576  0.62428  0.09647  1.0000
  O   O14       1.0  0.78424  0.37572  0.90353  1.0000
