data_image0
_chemical_formula_structural       La4H20C36N12O28
_chemical_formula_sum              "La4 H20 C36 N12 O28"
_cell_length_a       9.3405
_cell_length_b       10.4562
_cell_length_c       12.659
_cell_angle_alpha    89.9994
_cell_angle_beta     106.541
_cell_angle_gamma    90

_space_group_name_H-M_alt    "P 1"
_space_group_IT_number       1

loop_
  _space_group_symop_operation_xyz
  'x, y, z'

loop_
  _atom_site_type_symbol
  _atom_site_label
  _atom_site_symmetry_multiplicity
  _atom_site_fract_x
  _atom_site_fract_y
  _atom_site_fract_z
  _atom_site_occupancy
  La  La1       1.0  0.88734  0.87313  0.32728  1.0000
  La  La2       1.0  0.88735  0.12686  0.82728  1.0000
  La  La3       1.0  0.38824  0.42320  0.32498  1.0000
  La  La4       1.0  0.38824  0.57680  0.82497  1.0000
  H   H1        1.0  0.09579  0.16139  0.27700  1.0000
  H   H2        1.0  0.09578  0.83862  0.77699  1.0000
  H   H3        1.0  0.16716  0.21967  0.66978  1.0000
  H   H4        1.0  0.16717  0.78033  0.16978  1.0000
  H   H5        1.0  0.18460  0.74431  0.57215  1.0000
  H   H6        1.0  0.18461  0.25569  0.07215  1.0000
  H   H7        1.0  0.76999  0.48160  0.60398  1.0000
  H   H8        1.0  0.76999  0.51840  0.10399  1.0000
  H   H9        1.0  0.66375  0.67586  0.09050  1.0000
  H   H10       1.0  0.66375  0.32415  0.59050  1.0000
  H   H11       1.0  0.49960  0.09969  0.94936  1.0000
  H   H12       1.0  0.49960  0.90031  0.44938  1.0000
  H   H13       1.0  0.19699  0.74422  0.37342  1.0000
  H   H14       1.0  0.19699  0.25578  0.87341  1.0000
  H   H15       1.0  0.23769  0.88639  0.34424  1.0000
  H   H16       1.0  0.23769  0.11361  0.84423  1.0000
  H   H17       1.0  0.51894  0.45421  0.13891  1.0000
  H   H18       1.0  0.51894  0.54579  0.63890  1.0000
  H   H19       1.0  0.60619  0.32753  0.18867  1.0000
  H   H20       1.0  0.60620  0.67247  0.68868  1.0000
  C   C1        1.0  0.11118  0.17592  0.36481  1.0000
  C   C2        1.0  0.11117  0.82408  0.86481  1.0000
  C   C3        1.0  0.22162  0.28558  0.52386  1.0000
  C   C4        1.0  0.22161  0.71441  0.02385  1.0000
  C   C5        1.0  0.15021  0.20771  0.58203  1.0000
  C   C6        1.0  0.15021  0.79229  0.08203  1.0000
  C   C7        1.0  0.05801  0.11249  0.52290  1.0000
  C   C8        1.0  0.05802  0.88751  0.02290  1.0000
  C   C9        1.0  0.96846  0.02662  0.57625  1.0000
  C   C10       1.0  0.96846  0.97338  0.07625  1.0000
  C   C11       1.0  0.32727  0.38865  0.58318  1.0000
  C   C12       1.0  0.32726  0.61135  0.08318  1.0000
  C   C13       1.0  0.09229  0.68279  0.57700  1.0000
  C   C14       1.0  0.09229  0.31721  0.07700  1.0000
  C   C15       1.0  0.00408  0.52731  0.67039  1.0000
  C   C16       1.0  0.00409  0.47269  0.17039  1.0000
  C   C17       1.0  0.86345  0.53766  0.59509  1.0000
  C   C18       1.0  0.86345  0.46234  0.09509  1.0000
  C   C19       1.0  0.84678  0.62308  0.50807  1.0000
  C   C20       1.0  0.84678  0.37692  0.00807  1.0000
  C   C21       1.0  0.69781  0.64061  0.42078  1.0000
  C   C22       1.0  0.69781  0.35939  0.92079  1.0000
  C   C23       1.0  0.03715  0.42569  0.75971  1.0000
  C   C24       1.0  0.03716  0.57430  0.25971  1.0000
  C   C25       1.0  0.62684  0.77041  0.05810  1.0000
  C   C26       1.0  0.62684  0.22960  0.55810  1.0000
  C   C27       1.0  0.62402  0.98641  0.08809  1.0000
  C   C28       1.0  0.62402  0.01359  0.58810  1.0000
  C   C29       1.0  0.53470  0.00446  0.98053  1.0000
  C   C30       1.0  0.53470  0.99555  0.48053  1.0000
  C   C31       1.0  0.49267  0.89600  0.91549  1.0000
  C   C32       1.0  0.49267  0.10400  0.41549  1.0000
  C   C33       1.0  0.38554  0.90284  0.79995  1.0000
  C   C34       1.0  0.38555  0.09717  0.29996  1.0000
  C   C35       1.0  0.67040  0.09664  0.16868  1.0000
  C   C36       1.0  0.67041  0.90337  0.66869  1.0000
  N   N1        1.0  0.04136  0.09440  0.41485  1.0000
  N   N2        1.0  0.04135  0.90561  0.91484  1.0000
  N   N3        1.0  0.20058  0.27174  0.41467  1.0000
  N   N4        1.0  0.20058  0.72826  0.91466  1.0000
  N   N5        1.0  0.96267  0.69332  0.49779  1.0000
  N   N6        1.0  0.96268  0.30668  0.99780  1.0000
  N   N7        1.0  0.11779  0.60312  0.66341  1.0000
  N   N8        1.0  0.11780  0.39687  0.16342  1.0000
  N   N9        1.0  0.53859  0.77814  0.95453  1.0000
  N   N10       1.0  0.53859  0.22187  0.45453  1.0000
  N   N11       1.0  0.67101  0.86901  0.12670  1.0000
  N   N12       1.0  0.67101  0.13100  0.62671  1.0000
  O   O1        1.0  0.88617  0.94398  0.51514  1.0000
  O   O2        1.0  0.88618  0.05602  0.01514  1.0000
  O   O3        1.0  0.97968  0.04596  0.67675  1.0000
  O   O4        1.0  0.97969  0.95404  0.17675  1.0000
  O   O5        1.0  0.39637  0.45345  0.52793  1.0000
  O   O6        1.0  0.39637  0.54655  0.02793  1.0000
  O   O7        1.0  0.33888  0.40195  0.68416  1.0000
  O   O8        1.0  0.33887  0.59804  0.18416  1.0000
  O   O9        1.0  0.68713  0.73318  0.35473  1.0000
  O   O10       1.0  0.68713  0.26682  0.85473  1.0000
  O   O11       1.0  0.59706  0.56039  0.42225  1.0000
  O   O12       1.0  0.59707  0.43961  0.92226  1.0000
  O   O13       1.0  0.16243  0.43070  0.83342  1.0000
  O   O14       1.0  0.16244  0.56930  0.33342  1.0000
  O   O15       1.0  0.93800  0.34062  0.75032  1.0000
  O   O16       1.0  0.93801  0.65937  0.25033  1.0000
  O   O17       1.0  0.36177  0.79646  0.74755  1.0000
  O   O18       1.0  0.36178  0.20354  0.24755  1.0000
  O   O19       1.0  0.32500  0.00824  0.76713  1.0000
  O   O20       1.0  0.32501  0.99176  0.26714  1.0000
  O   O21       1.0  0.72795  0.06534  0.26953  1.0000
  O   O22       1.0  0.72795  0.93467  0.76954  1.0000
  O   O23       1.0  0.64629  0.20702  0.12904  1.0000
  O   O24       1.0  0.64631  0.79299  0.62906  1.0000
  O   O25       1.0  0.17826  0.83588  0.38350  1.0000
  O   O26       1.0  0.17826  0.16412  0.88350  1.0000
  O   O27       1.0  0.56685  0.41112  0.20988  1.0000
  O   O28       1.0  0.56685  0.58888  0.70988  1.0000
