data_image0
_chemical_formula_structural       Cu4H20C24N4Cl4
_chemical_formula_sum              "Cu4 H20 C24 N4 Cl4"
_cell_length_a       3.68196
_cell_length_b       10.5749
_cell_length_c       14.992
_cell_angle_alpha    89.9999
_cell_angle_beta     90.0002
_cell_angle_gamma    94.6373

_space_group_name_H-M_alt    "P 1"
_space_group_IT_number       1

loop_
  _space_group_symop_operation_xyz
  'x, y, z'

loop_
  _atom_site_type_symbol
  _atom_site_label
  _atom_site_symmetry_multiplicity
  _atom_site_fract_x
  _atom_site_fract_y
  _atom_site_fract_z
  _atom_site_occupancy
  Cu  Cu1       1.0  0.76416  0.06220  0.43773  1.0000
  Cu  Cu2       1.0  0.23585  0.43780  0.93773  1.0000
  Cu  Cu3       1.0  0.23583  0.93780  0.56227  1.0000
  Cu  Cu4       1.0  0.76417  0.56220  0.06227  1.0000
  H   H1        1.0  0.76469  0.87273  0.00923  1.0000
  H   H2        1.0  0.23530  0.62727  0.50923  1.0000
  H   H3        1.0  0.23531  0.12726  0.99077  1.0000
  H   H4        1.0  0.76469  0.37274  0.49077  1.0000
  H   H5        1.0  0.56758  0.81239  0.15168  1.0000
  H   H6        1.0  0.43242  0.68761  0.65168  1.0000
  H   H7        1.0  0.43241  0.18761  0.84832  1.0000
  H   H8        1.0  0.56760  0.31239  0.34832  1.0000
  H   H9        1.0  0.10831  0.20328  0.28944  1.0000
  H   H10       1.0  0.89169  0.29672  0.78944  1.0000
  H   H11       1.0  0.89169  0.79672  0.71056  1.0000
  H   H12       1.0  0.10831  0.70328  0.21056  1.0000
  H   H13       1.0  0.16996  0.17829  0.12624  1.0000
  H   H14       1.0  0.83003  0.32171  0.62624  1.0000
  H   H15       1.0  0.83003  0.82171  0.87376  1.0000
  H   H16       1.0  0.16996  0.67829  0.37376  1.0000
  H   H17       1.0  0.52472  0.85434  0.31599  1.0000
  H   H18       1.0  0.47529  0.64566  0.81599  1.0000
  H   H19       1.0  0.47526  0.14566  0.68401  1.0000
  H   H20       1.0  0.52473  0.35434  0.18401  1.0000
  C   C1        1.0  0.87509  0.99073  0.12413  1.0000
  C   C2        1.0  0.12491  0.50927  0.62413  1.0000
  C   C3        1.0  0.12491  0.00926  0.87587  1.0000
  C   C4        1.0  0.87509  0.49073  0.37587  1.0000
  C   C5        1.0  0.90559  0.96267  0.03015  1.0000
  C   C6        1.0  0.09442  0.53733  0.53015  1.0000
  C   C7        1.0  0.09441  0.03733  0.96986  1.0000
  C   C8        1.0  0.90560  0.46267  0.46986  1.0000
  C   C9        1.0  0.69011  0.90053  0.18043  1.0000
  C   C10       1.0  0.30989  0.59947  0.68043  1.0000
  C   C11       1.0  0.30989  0.09946  0.81957  1.0000
  C   C12       1.0  0.69012  0.40053  0.31957  1.0000
  C   C13       1.0  0.99048  0.11819  0.25617  1.0000
  C   C14       1.0  0.00952  0.38181  0.75617  1.0000
  C   C15       1.0  0.00951  0.88180  0.74383  1.0000
  C   C16       1.0  0.99049  0.61820  0.24383  1.0000
  C   C17       1.0  0.02490  0.10319  0.16511  1.0000
  C   C18       1.0  0.97509  0.39681  0.66511  1.0000
  C   C19       1.0  0.97509  0.89680  0.83489  1.0000
  C   C20       1.0  0.02491  0.60320  0.33489  1.0000
  C   C21       1.0  0.66476  0.92314  0.27110  1.0000
  C   C22       1.0  0.33524  0.57686  0.77110  1.0000
  C   C23       1.0  0.33523  0.07686  0.72890  1.0000
  C   C24       1.0  0.66477  0.42314  0.22890  1.0000
  N   N1        1.0  0.81263  0.03061  0.31011  1.0000
  N   N2        1.0  0.18737  0.46940  0.81011  1.0000
  N   N3        1.0  0.18736  0.96939  0.68989  1.0000
  N   N4        1.0  0.81264  0.53061  0.18989  1.0000
  Cl  Cl1       1.0  0.69853  0.83704  0.49810  1.0000
  Cl  Cl2       1.0  0.30146  0.66296  0.99810  1.0000
  Cl  Cl3       1.0  0.30146  0.16296  0.50190  1.0000
  Cl  Cl4       1.0  0.69855  0.33704  0.00189  1.0000
