data_image0
_chemical_formula_structural       Mn2H32C20S2O18
_chemical_formula_sum              "Mn2 H32 C20 S2 O18"
_cell_length_a       5.03511
_cell_length_b       11.2824
_cell_length_c       12.095
_cell_angle_alpha    90.0006
_cell_angle_beta     94.7017
_cell_angle_gamma    89.9999

_space_group_name_H-M_alt    "P 1"
_space_group_IT_number       1

loop_
  _space_group_symop_operation_xyz
  'x, y, z'

loop_
  _atom_site_type_symbol
  _atom_site_label
  _atom_site_symmetry_multiplicity
  _atom_site_fract_x
  _atom_site_fract_y
  _atom_site_fract_z
  _atom_site_occupancy
  Mn  Mn1       1.0  0.57950  0.22450  0.90388  1.0000
  Mn  Mn2       1.0  0.42048  0.72450  0.09612  1.0000
  H   H1        1.0  0.01894  0.36188  0.91650  1.0000
  H   H2        1.0  0.98104  0.86187  0.08350  1.0000
  H   H3        1.0  0.75503  0.43869  0.91267  1.0000
  H   H4        1.0  0.24496  0.93869  0.08733  1.0000
  H   H5        1.0  0.99931  0.14969  0.78467  1.0000
  H   H6        1.0  0.00068  0.64968  0.21533  1.0000
  H   H7        1.0  0.88356  0.26675  0.72713  1.0000
  H   H8        1.0  0.11644  0.76674  0.27287  1.0000
  H   H9        1.0  0.86317  0.04164  0.96630  1.0000
  H   H10       1.0  0.13681  0.54163  0.03369  1.0000
  H   H11       1.0  0.04528  0.15194  0.01595  1.0000
  H   H12       1.0  0.95472  0.65193  0.98404  1.0000
  H   H13       1.0  0.35039  0.30432  0.09178  1.0000
  H   H14       1.0  0.64960  0.80433  0.90822  1.0000
  H   H15       1.0  0.41726  0.16404  0.10930  1.0000
  H   H16       1.0  0.58275  0.66405  0.89070  1.0000
  H   H17       1.0  0.21755  0.60626  0.69312  1.0000
  H   H18       1.0  0.78246  0.10625  0.30688  1.0000
  H   H19       1.0  0.99546  0.56833  0.79229  1.0000
  H   H20       1.0  0.00453  0.06833  0.20771  1.0000
  H   H21       1.0  0.03258  0.21864  0.53734  1.0000
  H   H22       1.0  0.96741  0.71864  0.46266  1.0000
  H   H23       1.0  0.31470  0.16509  0.38599  1.0000
  H   H24       1.0  0.68533  0.66508  0.61401  1.0000
  H   H25       1.0  0.58317  0.52894  0.37424  1.0000
  H   H26       1.0  0.41685  0.02895  0.62577  1.0000
  H   H27       1.0  0.29400  0.58165  0.51716  1.0000
  H   H28       1.0  0.70601  0.08164  0.48283  1.0000
  H   H29       1.0  0.89782  0.34417  0.18040  1.0000
  H   H30       1.0  0.10218  0.84416  0.81960  1.0000
  H   H31       1.0  0.91339  0.43905  0.29856  1.0000
  H   H32       1.0  0.08662  0.93906  0.70143  1.0000
  C   C1        1.0  0.35042  0.46603  0.80492  1.0000
  C   C2        1.0  0.64958  0.96603  0.19508  1.0000
  C   C3        1.0  0.13239  0.53096  0.73515  1.0000
  C   C4        1.0  0.86762  0.03095  0.26485  1.0000
  C   C5        1.0  0.14345  0.40393  0.53863  1.0000
  C   C6        1.0  0.85652  0.90394  0.46137  1.0000
  C   C7        1.0  0.15246  0.28647  0.50083  1.0000
  C   C8        1.0  0.84752  0.78647  0.49917  1.0000
  C   C9        1.0  0.31223  0.25597  0.41665  1.0000
  C   C10       1.0  0.68776  0.75596  0.58334  1.0000
  C   C11       1.0  0.47148  0.34205  0.37084  1.0000
  C   C12       1.0  0.52854  0.84205  0.62917  1.0000
  C   C13       1.0  0.46444  0.45940  0.40829  1.0000
  C   C14       1.0  0.53559  0.95940  0.59172  1.0000
  C   C15       1.0  0.29830  0.48954  0.49046  1.0000
  C   C16       1.0  0.70170  0.98954  0.50955  1.0000
  C   C17       1.0  0.77762  0.39213  0.23758  1.0000
  C   C18       1.0  0.22240  0.89213  0.76241  1.0000
  C   C19       1.0  0.59822  0.47973  0.16970  1.0000
  C   C20       1.0  0.40177  0.97973  0.83031  1.0000
  S   S1        1.0  0.92237  0.44199  0.63968  1.0000
  S   S2        1.0  0.07760  0.94198  0.36031  1.0000
  O   O1        1.0  0.85389  0.37246  0.95449  1.0000
  O   O2        1.0  0.14609  0.87245  0.04551  1.0000
  O   O3        1.0  0.82998  0.19148  0.76145  1.0000
  O   O4        1.0  0.17002  0.69147  0.23855  1.0000
  O   O5        1.0  0.86262  0.11762  0.00653  1.0000
  O   O6        1.0  0.13738  0.61761  0.99347  1.0000
  O   O7        1.0  0.34528  0.22403  0.05440  1.0000
  O   O8        1.0  0.65471  0.72404  0.94560  1.0000
  O   O9        1.0  0.30855  0.35924  0.83487  1.0000
  O   O10       1.0  0.69146  0.85923  0.16514  1.0000
  O   O11       1.0  0.56213  0.52339  0.83259  1.0000
  O   O12       1.0  0.43789  0.02339  0.16741  1.0000
  O   O13       1.0  0.62661  0.30370  0.28965  1.0000
  O   O14       1.0  0.37338  0.80371  0.71035  1.0000
  O   O15       1.0  0.68723  0.58561  0.16130  1.0000
  O   O16       1.0  0.31279  0.08561  0.83869  1.0000
  O   O17       1.0  0.37654  0.44386  0.12582  1.0000
  O   O18       1.0  0.62345  0.94386  0.87418  1.0000
