data_image0
_chemical_formula_structural       MnH28C46N8O4
_chemical_formula_sum              "Mn1 H28 C46 N8 O4"
_cell_length_a       9.23913
_cell_length_b       10.5157
_cell_length_c       10.3545
_cell_angle_alpha    91.8241
_cell_angle_beta     113.043
_cell_angle_gamma    110.285

_space_group_name_H-M_alt    "P 1"
_space_group_IT_number       1

loop_
  _space_group_symop_operation_xyz
  'x, y, z'

loop_
  _atom_site_type_symbol
  _atom_site_label
  _atom_site_symmetry_multiplicity
  _atom_site_fract_x
  _atom_site_fract_y
  _atom_site_fract_z
  _atom_site_occupancy
  Mn  Mn1       1.0  1.00000  0.00000  0.00000  1.0000
  H   H1        1.0  0.58484  0.90154  0.45263  1.0000
  H   H2        1.0  0.41516  0.09847  0.54738  1.0000
  H   H3        1.0  0.78487  0.05446  0.69033  1.0000
  H   H4        1.0  0.21513  0.94554  0.30967  1.0000
  H   H5        1.0  0.31492  0.92409  0.18119  1.0000
  H   H6        1.0  0.68508  0.07590  0.81881  1.0000
  H   H7        1.0  0.38087  0.71538  0.17020  1.0000
  H   H8        1.0  0.61913  0.28462  0.82979  1.0000
  H   H9        1.0  0.19117  0.52055  0.95990  1.0000
  H   H10       1.0  0.80883  0.47945  0.04010  1.0000
  H   H11       1.0  0.57221  0.65902  0.40945  1.0000
  H   H12       1.0  0.42779  0.34098  0.59055  1.0000
  H   H13       1.0  0.54466  0.26796  0.26622  1.0000
  H   H14       1.0  0.45534  0.73204  0.73378  1.0000
  H   H15       1.0  0.49355  0.07797  0.08742  1.0000
  H   H16       1.0  0.50645  0.92203  0.91258  1.0000
  H   H17       1.0  0.69112  0.95164  0.14741  1.0000
  H   H18       1.0  0.30888  0.04836  0.85259  1.0000
  H   H19       1.0  0.93646  0.02108  0.38608  1.0000
  H   H20       1.0  0.06354  0.97892  0.61392  1.0000
  H   H21       1.0  0.99201  0.21570  0.56306  1.0000
  H   H22       1.0  0.00799  0.78430  0.43694  1.0000
  H   H23       1.0  0.41927  0.38397  0.18092  1.0000
  H   H24       1.0  0.58073  0.61603  0.81908  1.0000
  H   H25       1.0  0.31792  0.40325  0.74020  1.0000
  H   H26       1.0  0.68208  0.59675  0.25980  1.0000
  H   H27       1.0  0.99165  0.35967  0.72099  1.0000
  H   H28       1.0  0.00835  0.64032  0.27901  1.0000
  C   C1        1.0  0.66142  0.86146  0.53682  1.0000
  C   C2        1.0  0.33859  0.13854  0.46318  1.0000
  C   C3        1.0  0.77033  0.94767  0.67121  1.0000
  C   C4        1.0  0.22967  0.05233  0.32879  1.0000
  C   C5        1.0  0.87009  0.77894  0.75685  1.0000
  C   C6        1.0  0.12991  0.22106  0.24315  1.0000
  C   C7        1.0  0.23257  0.83807  0.09129  1.0000
  C   C8        1.0  0.76743  0.16193  0.90871  1.0000
  C   C9        1.0  0.26944  0.72071  0.08373  1.0000
  C   C10       1.0  0.73056  0.27929  0.91627  1.0000
  C   C11       1.0  0.16453  0.61282  0.96683  1.0000
  C   C12       1.0  0.83547  0.38718  0.03317  1.0000
  C   C13       1.0  0.02686  0.62730  0.85469  1.0000
  C   C14       1.0  0.97314  0.37271  0.14531  1.0000
  C   C15       1.0  0.99702  0.74962  0.87063  1.0000
  C   C16       1.0  0.00298  0.25037  0.12937  1.0000
  C   C17       1.0  0.76637  0.68681  0.62251  1.0000
  C   C18       1.0  0.23363  0.31319  0.37749  1.0000
  C   C19       1.0  0.65579  0.72906  0.51238  1.0000
  C   C20       1.0  0.34421  0.27095  0.48762  1.0000
  C   C21       1.0  0.79336  0.56204  0.60741  1.0000
  C   C22       1.0  0.20664  0.43796  0.39259  1.0000
  C   C23       1.0  0.91858  0.53467  0.72025  1.0000
  C   C24       1.0  0.08142  0.46532  0.27975  1.0000
  C   C25       1.0  0.80141  0.37526  0.52428  1.0000
  C   C26       1.0  0.19859  0.62474  0.47572  1.0000
  C   C27       1.0  0.77111  0.25585  0.42654  1.0000
  C   C28       1.0  0.22889  0.74415  0.57346  1.0000
  C   C29       1.0  0.63010  0.21372  0.29184  1.0000
  C   C30       1.0  0.36990  0.78629  0.70815  1.0000
  C   C31       1.0  0.60168  0.10576  0.19199  1.0000
  C   C32       1.0  0.39832  0.89424  0.80800  1.0000
  C   C33       1.0  0.71090  0.03505  0.22569  1.0000
  C   C34       1.0  0.28910  0.96495  0.77431  1.0000
  C   C35       1.0  0.84996  0.07501  0.36001  1.0000
  C   C36       1.0  0.15004  0.92499  0.63999  1.0000
  C   C37       1.0  0.88142  0.18501  0.45965  1.0000
  C   C38       1.0  0.11858  0.81499  0.54035  1.0000
  C   C39       1.0  0.19401  0.24994  0.90933  1.0000
  C   C40       1.0  0.80599  0.75006  0.09066  1.0000
  C   C41       1.0  0.35439  0.37722  0.95603  1.0000
  C   C42       1.0  0.64561  0.62278  0.04397  1.0000
  C   C43       1.0  0.45626  0.43422  0.10200  1.0000
  C   C44       1.0  0.54375  0.56578  0.89800  1.0000
  C   C45       1.0  0.39847  0.44439  0.85404  1.0000
  C   C46       1.0  0.60153  0.55561  0.14596  1.0000
  N   N1        1.0  0.86761  0.90677  0.78173  1.0000
  N   N2        1.0  0.13239  0.09323  0.21828  1.0000
  N   N3        1.0  0.09658  0.85212  0.99047  1.0000
  N   N4        1.0  0.90342  0.14788  0.00954  1.0000
  N   N5        1.0  0.92081  0.41522  0.66514  1.0000
  N   N6        1.0  0.07919  0.58478  0.33486  1.0000
  N   N7        1.0  0.72198  0.46260  0.48684  1.0000
  N   N8        1.0  0.27802  0.53740  0.51316  1.0000
  O   O1        1.0  0.20341  0.15819  0.98834  1.0000
  O   O2        1.0  0.79659  0.84181  0.01166  1.0000
  O   O3        1.0  0.06321  0.24127  0.80039  1.0000
  O   O4        1.0  0.93679  0.75873  0.19961  1.0000
