data_image0
_chemical_formula_structural       MnH28C46N8O6
_chemical_formula_sum              "Mn1 H28 C46 N8 O6"
_cell_length_a       9.06605
_cell_length_b       10.353
_cell_length_c       11.0485
_cell_angle_alpha    61.9409
_cell_angle_beta     78.4331
_cell_angle_gamma    76.2443

_space_group_name_H-M_alt    "P 1"
_space_group_IT_number       1

loop_
  _space_group_symop_operation_xyz
  'x, y, z'

loop_
  _atom_site_type_symbol
  _atom_site_label
  _atom_site_symmetry_multiplicity
  _atom_site_fract_x
  _atom_site_fract_y
  _atom_site_fract_z
  _atom_site_occupancy
  Mn  Mn1       1.0  0.00000  1.00000  0.50000  1.0000
  H   H1        1.0  0.31255  0.77091  0.51674  1.0000
  H   H2        1.0  0.68746  0.22909  0.48326  1.0000
  H   H3        1.0  0.52777  0.75505  0.34410  1.0000
  H   H4        1.0  0.47223  0.24495  0.65590  1.0000
  H   H5        1.0  0.55803  0.97912  0.11528  1.0000
  H   H6        1.0  0.44198  0.02088  0.88471  1.0000
  H   H7        1.0  0.68772  0.31240  0.75845  1.0000
  H   H8        1.0  0.31228  0.68759  0.24155  1.0000
  H   H9        1.0  0.87752  0.43636  0.56317  1.0000
  H   H10       1.0  0.12248  0.56363  0.43683  1.0000
  H   H11       1.0  0.62916  0.86221  0.52119  1.0000
  H   H12       1.0  0.37084  0.13779  0.47881  1.0000
  H   H13       1.0  0.44622  0.73945  0.72042  1.0000
  H   H14       1.0  0.55378  0.26055  0.27958  1.0000
  H   H15       1.0  0.05290  0.61691  0.06566  1.0000
  H   H16       1.0  0.94710  0.38309  0.93434  1.0000
  H   H17       1.0  0.86040  0.58082  0.27190  1.0000
  H   H18       1.0  0.13961  0.41918  0.72810  1.0000
  H   H19       1.0  0.12793  0.88015  0.21467  1.0000
  H   H20       1.0  0.87206  0.11986  0.78533  1.0000
  H   H21       1.0  0.84304  0.32799  0.45695  1.0000
  H   H22       1.0  0.15696  0.67201  0.54305  1.0000
  H   H23       1.0  0.76015  0.18361  0.97998  1.0000
  H   H24       1.0  0.23985  0.81640  0.02002  1.0000
  H   H25       1.0  0.27656  0.60687  0.89027  1.0000
  H   H26       1.0  0.72344  0.39314  0.10973  1.0000
  H   H27       1.0  0.87125  0.82127  0.39136  1.0000
  H   H28       1.0  0.12875  0.17873  0.60864  1.0000
  C   C1        1.0  0.32158  0.86386  0.41507  1.0000
  C   C2        1.0  0.67842  0.13614  0.58492  1.0000
  C   C3        1.0  0.44556  0.85734  0.31811  1.0000
  C   C4        1.0  0.55444  0.14266  0.68188  1.0000
  C   C5        1.0  0.46270  0.98059  0.19258  1.0000
  C   C6        1.0  0.53731  0.01941  0.80742  1.0000
  C   C7        1.0  0.35648  0.11157  0.16832  1.0000
  C   C8        1.0  0.64352  0.88843  0.83168  1.0000
  C   C9        1.0  0.23099  0.10800  0.26935  1.0000
  C   C10       1.0  0.76901  0.89200  0.73064  1.0000
  C   C11       1.0  0.12461  0.23899  0.25686  1.0000
  C   C12       1.0  0.87539  0.76101  0.74314  1.0000
  C   C13       1.0  0.14243  0.38090  0.14505  1.0000
  C   C14       1.0  0.85757  0.61910  0.85495  1.0000
  C   C15       1.0  0.26808  0.38144  0.04414  1.0000
  C   C16       1.0  0.73192  0.61856  0.95586  1.0000
  C   C17       1.0  0.36981  0.25236  0.05280  1.0000
  C   C18       1.0  0.63018  0.74764  0.94720  1.0000
  C   C19       1.0  0.45461  0.43428  0.87298  1.0000
  C   C20       1.0  0.54539  0.56572  0.12702  1.0000
  C   C21       1.0  0.55305  0.51608  0.75221  1.0000
  C   C22       1.0  0.44694  0.48392  0.24779  1.0000
  C   C23       1.0  0.67489  0.43281  0.70446  1.0000
  C   C24       1.0  0.32511  0.56718  0.29554  1.0000
  C   C25       1.0  0.77807  0.50134  0.59400  1.0000
  C   C26       1.0  0.22193  0.49866  0.40600  1.0000
  C   C27       1.0  0.76145  0.65682  0.52550  1.0000
  C   C28       1.0  0.23855  0.34318  0.47450  1.0000
  C   C29       1.0  0.64122  0.74145  0.57282  1.0000
  C   C30       1.0  0.35878  0.25855  0.42718  1.0000
  C   C31       1.0  0.53845  0.67171  0.68515  1.0000
  C   C32       1.0  0.46155  0.32828  0.31485  1.0000
  C   C33       1.0  0.04241  0.50626  0.14833  1.0000
  C   C34       1.0  0.95760  0.49374  0.85167  1.0000
  C   C35       1.0  0.93474  0.48635  0.26145  1.0000
  C   C36       1.0  0.06527  0.51365  0.73855  1.0000
  C   C37       1.0  0.87809  0.08172  0.22316  1.0000
  C   C38       1.0  0.12191  0.91829  0.77684  1.0000
  C   C39       1.0  0.93843  0.03655  0.10941  1.0000
  C   C40       1.0  0.06156  0.96345  0.89059  1.0000
  C   C41       1.0  0.07213  0.93165  0.12036  1.0000
  C   C42       1.0  0.92788  0.06835  0.87965  1.0000
  C   C43       1.0  0.92443  0.34341  0.36674  1.0000
  C   C44       1.0  0.07558  0.65659  0.63326  1.0000
  C   C45       1.0  0.86614  0.10458  0.98790  1.0000
  C   C46       1.0  0.13386  0.89543  0.01210  1.0000
  N   N1        1.0  0.21139  0.98298  0.39052  1.0000
  N   N2        1.0  0.78861  0.01702  0.60948  1.0000
  N   N3        1.0  0.01345  0.22045  0.36509  1.0000
  N   N4        1.0  0.98655  0.77955  0.63491  1.0000
  N   N5        1.0  0.48387  0.28635  0.94649  1.0000
  N   N6        1.0  0.51613  0.71365  0.05351  1.0000
  N   N7        1.0  0.32470  0.49581  0.92932  1.0000
  N   N8        1.0  0.67530  0.50419  0.07068  1.0000
  O   O1        1.0  0.86418  0.71624  0.41548  1.0000
  O   O2        1.0  0.13582  0.28376  0.58452  1.0000
  O   O3        1.0  0.91621  0.98307  0.34582  1.0000
  O   O4        1.0  0.08379  0.01693  0.65418  1.0000
  O   O5        1.0  0.79815  0.20598  0.19820  1.0000
  O   O6        1.0  0.20185  0.79403  0.80180  1.0000
