data_image0
_chemical_formula_structural       Cu2H16C28N8Cl2
_chemical_formula_sum              "Cu2 H16 C28 N8 Cl2"
_cell_length_a       3.6954
_cell_length_b       12.0473
_cell_length_c       12.8046
_cell_angle_alpha    89.9995
_cell_angle_beta     93.4351
_cell_angle_gamma    89.9994

_space_group_name_H-M_alt    "P 1"
_space_group_IT_number       1

loop_
  _space_group_symop_operation_xyz
  'x, y, z'

loop_
  _atom_site_type_symbol
  _atom_site_label
  _atom_site_symmetry_multiplicity
  _atom_site_fract_x
  _atom_site_fract_y
  _atom_site_fract_z
  _atom_site_occupancy
  Cu  Cu1       1.0  0.50001  0.00327  0.25000  1.0000
  Cu  Cu2       1.0  0.49999  0.99673  0.75001  1.0000
  H   H1        1.0  0.76073  0.04714  0.02146  1.0000
  H   H2        1.0  0.23929  0.04713  0.47853  1.0000
  H   H3        1.0  0.23929  0.95286  0.97855  1.0000
  H   H4        1.0  0.76071  0.95286  0.52146  1.0000
  H   H5        1.0  0.94386  0.21467  0.92658  1.0000
  H   H6        1.0  0.05614  0.21467  0.57341  1.0000
  H   H7        1.0  0.05615  0.78533  0.07342  1.0000
  H   H8        1.0  0.94385  0.78533  0.42659  1.0000
  H   H9        1.0  0.86860  0.40373  0.00986  1.0000
  H   H10       1.0  0.13140  0.40373  0.49014  1.0000
  H   H11       1.0  0.13140  0.59627  0.99014  1.0000
  H   H12       1.0  0.86860  0.59627  0.50986  1.0000
  H   H13       1.0  0.65060  0.70524  0.16577  1.0000
  H   H14       1.0  0.34940  0.70524  0.33422  1.0000
  H   H15       1.0  0.34942  0.29476  0.83423  1.0000
  H   H16       1.0  0.65061  0.29477  0.66577  1.0000
  C   C1        1.0  0.73639  0.12896  0.05678  1.0000
  C   C2        1.0  0.26363  0.12895  0.44321  1.0000
  C   C3        1.0  0.26361  0.87104  0.94322  1.0000
  C   C4        1.0  0.73637  0.87105  0.55679  1.0000
  C   C5        1.0  0.83906  0.22430  0.00381  1.0000
  C   C6        1.0  0.16096  0.22430  0.49618  1.0000
  C   C7        1.0  0.16094  0.77570  0.99619  1.0000
  C   C8        1.0  0.83904  0.77570  0.50382  1.0000
  C   C9        1.0  0.79571  0.32763  0.04938  1.0000
  C   C10       1.0  0.20431  0.32763  0.45061  1.0000
  C   C11       1.0  0.20429  0.67237  0.95062  1.0000
  C   C12       1.0  0.79568  0.67238  0.54939  1.0000
  C   C13       1.0  0.56672  0.23220  0.19800  1.0000
  C   C14       1.0  0.43331  0.23220  0.30199  1.0000
  C   C15       1.0  0.43328  0.76780  0.80200  1.0000
  C   C16       1.0  0.56668  0.76780  0.69801  1.0000
  C   C17       1.0  0.65131  0.33290  0.14849  1.0000
  C   C18       1.0  0.34873  0.33290  0.35151  1.0000
  C   C19       1.0  0.34869  0.66711  0.85151  1.0000
  C   C20       1.0  0.65127  0.66710  0.64850  1.0000
  C   C21       1.0  0.57941  0.43708  0.20078  1.0000
  C   C22       1.0  0.42061  0.43708  0.29921  1.0000
  C   C23       1.0  0.42059  0.56292  0.79922  1.0000
  C   C24       1.0  0.57938  0.56292  0.70079  1.0000
  C   C25       1.0  0.58276  0.62656  0.20196  1.0000
  C   C26       1.0  0.41724  0.62655  0.29804  1.0000
  C   C27       1.0  0.41724  0.37344  0.79803  1.0000
  C   C28       1.0  0.58275  0.37344  0.70196  1.0000
  N   N1        1.0  0.60278  0.13145  0.15167  1.0000
  N   N2        1.0  0.39725  0.13145  0.34833  1.0000
  N   N3        1.0  0.39723  0.86855  0.84833  1.0000
  N   N4        1.0  0.60274  0.86855  0.65168  1.0000
  N   N5        1.0  0.66206  0.53321  0.15308  1.0000
  N   N6        1.0  0.33796  0.53321  0.34692  1.0000
  N   N7        1.0  0.33794  0.46679  0.84692  1.0000
  N   N8        1.0  0.66204  0.46679  0.65308  1.0000
  Cl  Cl1       1.0  0.00001  0.89092  0.25000  1.0000
  Cl  Cl2       1.0  0.99998  0.10909  0.75000  1.0000
