data_image0
_chemical_formula_structural       Cu2H24C24Br4N4
_chemical_formula_sum              "Cu2 H24 C24 Br4 N4"
_cell_length_a       7.32635
_cell_length_b       9.82319
_cell_length_c       10.1741
_cell_angle_alpha    118.868
_cell_angle_beta     103.994
_cell_angle_gamma    90.001

_space_group_name_H-M_alt    "P 1"
_space_group_IT_number       1

loop_
  _space_group_symop_operation_xyz
  'x, y, z'

loop_
  _atom_site_type_symbol
  _atom_site_label
  _atom_site_symmetry_multiplicity
  _atom_site_fract_x
  _atom_site_fract_y
  _atom_site_fract_z
  _atom_site_occupancy
  Cu  Cu1       1.0  0.75010  0.07151  0.99997  1.0000
  Cu  Cu2       1.0  0.24989  0.92849  0.00002  1.0000
  H   H1        1.0  0.84532  0.63027  0.11256  1.0000
  H   H2        1.0  0.34524  0.48225  0.11250  1.0000
  H   H3        1.0  0.15471  0.36974  0.88744  1.0000
  H   H4        1.0  0.65476  0.51774  0.88750  1.0000
  H   H5        1.0  0.19768  0.55475  0.47026  1.0000
  H   H6        1.0  0.69752  0.91554  0.47025  1.0000
  H   H7        1.0  0.80231  0.44526  0.52974  1.0000
  H   H8        1.0  0.30247  0.08446  0.52976  1.0000
  H   H9        1.0  0.05846  0.26966  0.30651  1.0000
  H   H10       1.0  0.55837  0.03684  0.30646  1.0000
  H   H11       1.0  0.94153  0.73034  0.69350  1.0000
  H   H12       1.0  0.44163  0.96315  0.69353  1.0000
  H   H13       1.0  0.25435  0.80788  0.44634  1.0000
  H   H14       1.0  0.75430  0.63847  0.44625  1.0000
  H   H15       1.0  0.74565  0.19213  0.55368  1.0000
  H   H16       1.0  0.24569  0.36152  0.55374  1.0000
  H   H17       1.0  0.04620  0.84040  0.50770  1.0000
  H   H18       1.0  0.54615  0.66729  0.50767  1.0000
  H   H19       1.0  0.95380  0.15959  0.49232  1.0000
  H   H20       1.0  0.45384  0.33271  0.49232  1.0000
  H   H21       1.0  0.05419  0.85011  0.33821  1.0000
  H   H22       1.0  0.55411  0.48808  0.33813  1.0000
  H   H23       1.0  0.94581  0.14991  0.66182  1.0000
  H   H24       1.0  0.44588  0.51191  0.66186  1.0000
  C   C1        1.0  0.82233  0.39371  0.07603  1.0000
  C   C2        1.0  0.32227  0.68229  0.07597  1.0000
  C   C3        1.0  0.17767  0.60629  0.92397  1.0000
  C   C4        1.0  0.67773  0.31770  0.92403  1.0000
  C   C5        1.0  0.89455  0.55320  0.15903  1.0000
  C   C6        1.0  0.39448  0.60579  0.15896  1.0000
  C   C7        1.0  0.10546  0.44681  0.84097  1.0000
  C   C8        1.0  0.60551  0.39420  0.84104  1.0000
  C   C9        1.0  0.02869  0.61633  0.30511  1.0000
  C   C10       1.0  0.52858  0.68877  0.30506  1.0000
  C   C11       1.0  0.97132  0.38367  0.69489  1.0000
  C   C12       1.0  0.47142  0.31122  0.69494  1.0000
  C   C13       1.0  0.09098  0.51263  0.35875  1.0000
  C   C14       1.0  0.59089  0.84611  0.35871  1.0000
  C   C15       1.0  0.90902  0.48737  0.64124  1.0000
  C   C16       1.0  0.40910  0.15389  0.64129  1.0000
  C   C17       1.0  0.01496  0.35506  0.26991  1.0000
  C   C18       1.0  0.51489  0.91486  0.26988  1.0000
  C   C19       1.0  0.98504  0.64495  0.73010  1.0000
  C   C20       1.0  0.48511  0.08514  0.73012  1.0000
  C   C21       1.0  0.09896  0.78794  0.40315  1.0000
  C   C22       1.0  0.59889  0.61521  0.40310  1.0000
  C   C23       1.0  0.90105  0.21206  0.59685  1.0000
  C   C24       1.0  0.40110  0.38479  0.59689  1.0000
  Br  Br1       1.0  0.92910  0.97906  0.16833  1.0000
  Br  Br2       1.0  0.42898  0.18929  0.16844  1.0000
  Br  Br3       1.0  0.07091  0.02093  0.83167  1.0000
  Br  Br4       1.0  0.57105  0.81069  0.83155  1.0000
  N   N1        1.0  0.88132  0.29700  0.13325  1.0000
  N   N2        1.0  0.38125  0.83623  0.13322  1.0000
  N   N3        1.0  0.11868  0.70300  0.86675  1.0000
  N   N4        1.0  0.61875  0.16376  0.86677  1.0000
