data_image0
_chemical_formula_structural       Zn4H12C8N20O12
_chemical_formula_sum              "Zn4 H12 C8 N20 O12"
_cell_length_a       6.5711
_cell_length_b       8.691
_cell_length_c       10.2574
_cell_angle_alpha    90.0002
_cell_angle_beta     89.9998
_cell_angle_gamma    94.7172

_space_group_name_H-M_alt    "P 1"
_space_group_IT_number       1

loop_
  _space_group_symop_operation_xyz
  'x, y, z'

loop_
  _atom_site_type_symbol
  _atom_site_label
  _atom_site_symmetry_multiplicity
  _atom_site_fract_x
  _atom_site_fract_y
  _atom_site_fract_z
  _atom_site_occupancy
  Zn  Zn1       1.0  0.76315  0.70041  0.30102  1.0000
  Zn  Zn2       1.0  0.73685  0.29959  0.80102  1.0000
  Zn  Zn3       1.0  0.23685  0.29959  0.69898  1.0000
  Zn  Zn4       1.0  0.26315  0.70041  0.19898  1.0000
  H   H1        1.0  0.52968  0.90428  0.25215  1.0000
  H   H2        1.0  0.97032  0.09572  0.75214  1.0000
  H   H3        1.0  0.47031  0.09572  0.74786  1.0000
  H   H4        1.0  0.02968  0.90428  0.24786  1.0000
  H   H5        1.0  0.82095  0.24606  0.53023  1.0000
  H   H6        1.0  0.67906  0.75394  0.03023  1.0000
  H   H7        1.0  0.17906  0.75394  0.46977  1.0000
  H   H8        1.0  0.32095  0.24607  0.96977  1.0000
  H   H9        1.0  0.79638  0.33486  0.37431  1.0000
  H   H10       1.0  0.70363  0.66514  0.87432  1.0000
  H   H11       1.0  0.20362  0.66514  0.62568  1.0000
  H   H12       1.0  0.29638  0.33486  0.12569  1.0000
  C   C1        1.0  0.75331  0.46830  0.53681  1.0000
  C   C2        1.0  0.74670  0.53169  0.03682  1.0000
  C   C3        1.0  0.24671  0.53169  0.46319  1.0000
  C   C4        1.0  0.25331  0.46831  0.96319  1.0000
  C   C5        1.0  0.70152  0.69817  0.58997  1.0000
  C   C6        1.0  0.79849  0.30183  0.08997  1.0000
  C   C7        1.0  0.29849  0.30183  0.41003  1.0000
  C   C8        1.0  0.20151  0.69817  0.91003  1.0000
  N   N1        1.0  0.73142  0.60948  0.48284  1.0000
  N   N2        1.0  0.76859  0.39052  0.98284  1.0000
  N   N3        1.0  0.26859  0.39052  0.51716  1.0000
  N   N4        1.0  0.23141  0.60949  0.01716  1.0000
  N   N5        1.0  0.73751  0.47701  0.66992  1.0000
  N   N6        1.0  0.76249  0.52298  0.16993  1.0000
  N   N7        1.0  0.26249  0.52298  0.33008  1.0000
  N   N8        1.0  0.23751  0.47702  0.83008  1.0000
  N   N9        1.0  0.70383  0.62326  0.70193  1.0000
  N   N10       1.0  0.79617  0.37674  0.20193  1.0000
  N   N11       1.0  0.29617  0.37674  0.29807  1.0000
  N   N12       1.0  0.20383  0.62326  0.79807  1.0000
  N   N13       1.0  0.78146  0.33660  0.47477  1.0000
  N   N14       1.0  0.71855  0.66340  0.97477  1.0000
  N   N15       1.0  0.21855  0.66341  0.52523  1.0000
  N   N16       1.0  0.28146  0.33660  0.02523  1.0000
  N   N17       1.0  0.67471  0.85853  0.58581  1.0000
  N   N18       1.0  0.82529  0.14147  0.08581  1.0000
  N   N19       1.0  0.32529  0.14147  0.41419  1.0000
  N   N20       1.0  0.17471  0.85853  0.91419  1.0000
  O   O1        1.0  0.62657  0.92138  0.68938  1.0000
  O   O2        1.0  0.87343  0.07861  0.18938  1.0000
  O   O3        1.0  0.37342  0.07861  0.31062  1.0000
  O   O4        1.0  0.12657  0.92139  0.81062  1.0000
  O   O5        1.0  0.70282  0.92625  0.47893  1.0000
  O   O6        1.0  0.79718  0.07374  0.97893  1.0000
  O   O7        1.0  0.29719  0.07374  0.52106  1.0000
  O   O8        1.0  0.20281  0.92626  0.02107  1.0000
  O   O9        1.0  0.54225  0.80195  0.21505  1.0000
  O   O10       1.0  0.95775  0.19805  0.71505  1.0000
  O   O11       1.0  0.45774  0.19805  0.78495  1.0000
  O   O12       1.0  0.04225  0.80195  0.28495  1.0000
