data_image0
_chemical_formula_structural       Co4H12C8N20O12
_chemical_formula_sum              "Co4 H12 C8 N20 O12"
_cell_length_a       6.4552
_cell_length_b       8.66268
_cell_length_c       10.1735
_cell_angle_alpha    89.9991
_cell_angle_beta     89.9988
_cell_angle_gamma    90.8466

_space_group_name_H-M_alt    "P 1"
_space_group_IT_number       1

loop_
  _space_group_symop_operation_xyz
  'x, y, z'

loop_
  _atom_site_type_symbol
  _atom_site_label
  _atom_site_symmetry_multiplicity
  _atom_site_fract_x
  _atom_site_fract_y
  _atom_site_fract_z
  _atom_site_occupancy
  Co  Co1       1.0  0.74745  0.69911  0.31026  1.0000
  Co  Co2       1.0  0.75255  0.30089  0.81026  1.0000
  Co  Co3       1.0  0.25255  0.30089  0.68974  1.0000
  Co  Co4       1.0  0.24745  0.69911  0.18974  1.0000
  H   H1        1.0  0.48950  0.90157  0.26438  1.0000
  H   H2        1.0  0.01050  0.09842  0.76438  1.0000
  H   H3        1.0  0.51050  0.09843  0.73562  1.0000
  H   H4        1.0  0.98951  0.90157  0.23562  1.0000
  H   H5        1.0  0.79725  0.22788  0.53483  1.0000
  H   H6        1.0  0.70276  0.77213  0.03483  1.0000
  H   H7        1.0  0.20276  0.77212  0.46517  1.0000
  H   H8        1.0  0.29725  0.22787  0.96518  1.0000
  H   H9        1.0  0.77539  0.32275  0.37924  1.0000
  H   H10       1.0  0.72461  0.67726  0.87923  1.0000
  H   H11       1.0  0.22461  0.67725  0.62077  1.0000
  H   H12       1.0  0.27539  0.32274  0.12077  1.0000
  C   C1        1.0  0.75308  0.45874  0.54360  1.0000
  C   C2        1.0  0.74693  0.54127  0.04359  1.0000
  C   C3        1.0  0.24692  0.54126  0.45640  1.0000
  C   C4        1.0  0.25308  0.45874  0.95641  1.0000
  C   C5        1.0  0.72320  0.69543  0.59434  1.0000
  C   C6        1.0  0.77681  0.30458  0.09435  1.0000
  C   C7        1.0  0.27681  0.30456  0.40565  1.0000
  C   C8        1.0  0.22319  0.69542  0.90566  1.0000
  N   N1        1.0  0.73875  0.60097  0.48725  1.0000
  N   N2        1.0  0.76125  0.39904  0.98725  1.0000
  N   N3        1.0  0.26125  0.39903  0.51275  1.0000
  N   N4        1.0  0.23875  0.60096  0.01275  1.0000
  N   N5        1.0  0.74728  0.47201  0.67892  1.0000
  N   N6        1.0  0.75272  0.52800  0.17892  1.0000
  N   N7        1.0  0.25272  0.52800  0.32108  1.0000
  N   N8        1.0  0.24728  0.47200  0.82108  1.0000
  N   N9        1.0  0.72758  0.62274  0.70889  1.0000
  N   N10       1.0  0.77243  0.37727  0.20889  1.0000
  N   N11       1.0  0.27242  0.37726  0.29110  1.0000
  N   N12       1.0  0.22758  0.62273  0.79111  1.0000
  N   N13       1.0  0.76741  0.32402  0.48108  1.0000
  N   N14       1.0  0.73259  0.67599  0.98108  1.0000
  N   N15       1.0  0.23259  0.67599  0.51891  1.0000
  N   N16       1.0  0.26742  0.32400  0.01892  1.0000
  N   N17       1.0  0.70653  0.85541  0.58279  1.0000
  N   N18       1.0  0.79347  0.14460  0.08279  1.0000
  N   N19       1.0  0.29347  0.14460  0.41721  1.0000
  N   N20       1.0  0.20653  0.85540  0.91721  1.0000
  O   O1        1.0  0.68358  0.93434  0.68487  1.0000
  O   O2        1.0  0.81643  0.06568  0.18488  1.0000
  O   O3        1.0  0.31642  0.06567  0.31512  1.0000
  O   O4        1.0  0.18357  0.93432  0.81512  1.0000
  O   O5        1.0  0.71798  0.91157  0.46784  1.0000
  O   O6        1.0  0.78200  0.08844  0.96786  1.0000
  O   O7        1.0  0.28201  0.08843  0.53215  1.0000
  O   O8        1.0  0.21799  0.91156  0.03215  1.0000
  O   O9        1.0  0.51320  0.79605  0.23288  1.0000
  O   O10       1.0  0.98680  0.20394  0.73288  1.0000
  O   O11       1.0  0.48681  0.20395  0.76712  1.0000
  O   O12       1.0  0.01320  0.79606  0.26712  1.0000
