data_image0
_chemical_formula_structural       Na4H28C8N16O8
_chemical_formula_sum              "Na4 H28 C8 N16 O8"
_cell_length_a       6.93749
_cell_length_b       6.86094
_cell_length_c       11.9934
_cell_angle_alpha    90.0001
_cell_angle_beta     89.9999
_cell_angle_gamma    90

_space_group_name_H-M_alt    "P 1"
_space_group_IT_number       1

loop_
  _space_group_symop_operation_xyz
  'x, y, z'

loop_
  _atom_site_type_symbol
  _atom_site_label
  _atom_site_symmetry_multiplicity
  _atom_site_fract_x
  _atom_site_fract_y
  _atom_site_fract_z
  _atom_site_occupancy
  Na  Na1       1.0  0.13990  0.25000  0.72411  1.0000
  Na  Na2       1.0  0.36010  0.75000  0.22412  1.0000
  Na  Na3       1.0  0.86009  0.75000  0.27588  1.0000
  Na  Na4       1.0  0.63990  0.25000  0.77588  1.0000
  H   H1        1.0  0.92807  0.92073  0.77646  1.0000
  H   H2        1.0  0.57193  0.07928  0.27646  1.0000
  H   H3        1.0  0.07193  0.42073  0.22354  1.0000
  H   H4        1.0  0.42806  0.57928  0.72353  1.0000
  H   H5        1.0  0.07194  0.07928  0.22354  1.0000
  H   H6        1.0  0.42807  0.92072  0.72353  1.0000
  H   H7        1.0  0.92806  0.57928  0.77646  1.0000
  H   H8        1.0  0.57194  0.42073  0.27646  1.0000
  H   H9        1.0  0.82685  0.92442  0.65978  1.0000
  H   H10       1.0  0.67316  0.07558  0.15978  1.0000
  H   H11       1.0  0.17316  0.42442  0.34022  1.0000
  H   H12       1.0  0.32684  0.57559  0.84022  1.0000
  H   H13       1.0  0.17316  0.07559  0.34023  1.0000
  H   H14       1.0  0.32685  0.92442  0.84022  1.0000
  H   H15       1.0  0.82684  0.57559  0.65978  1.0000
  H   H16       1.0  0.67316  0.42442  0.15978  1.0000
  H   H17       1.0  0.37078  0.25000  0.12326  1.0000
  H   H18       1.0  0.12923  0.75000  0.62327  1.0000
  H   H19       1.0  0.62922  0.74999  0.87674  1.0000
  H   H20       1.0  0.87078  0.25000  0.37674  1.0000
  H   H21       1.0  0.39533  0.12115  0.99561  1.0000
  H   H22       1.0  0.10467  0.87884  0.49562  1.0000
  H   H23       1.0  0.60467  0.62114  0.00439  1.0000
  H   H24       1.0  0.89533  0.37885  0.50439  1.0000
  H   H25       1.0  0.60467  0.87884  0.00439  1.0000
  H   H26       1.0  0.89533  0.12115  0.50439  1.0000
  H   H27       1.0  0.39533  0.37885  0.99561  1.0000
  H   H28       1.0  0.10467  0.62114  0.49562  1.0000
  C   C1        1.0  0.11911  0.25000  0.02371  1.0000
  C   C2        1.0  0.38090  0.75000  0.52372  1.0000
  C   C3        1.0  0.88090  0.74999  0.97629  1.0000
  C   C4        1.0  0.61910  0.25000  0.47629  1.0000
  C   C5        1.0  0.33170  0.25000  0.03503  1.0000
  C   C6        1.0  0.16830  0.74999  0.53504  1.0000
  C   C7        1.0  0.66829  0.74999  0.96497  1.0000
  C   C8        1.0  0.83171  0.25000  0.46497  1.0000
  N   N1        1.0  0.01919  0.25000  0.92747  1.0000
  N   N2        1.0  0.48080  0.75000  0.42747  1.0000
  N   N3        1.0  0.98080  0.75000  0.07253  1.0000
  N   N4        1.0  0.51919  0.25000  0.57253  1.0000
  N   N5        1.0  0.83209  0.25000  0.95724  1.0000
  N   N6        1.0  0.66791  0.75000  0.45725  1.0000
  N   N7        1.0  0.16791  0.75000  0.04275  1.0000
  N   N8        1.0  0.33209  0.25000  0.54275  1.0000
  N   N9        1.0  0.81879  0.25000  0.06722  1.0000
  N   N10       1.0  0.68121  0.75001  0.56722  1.0000
  N   N11       1.0  0.18120  0.75000  0.93278  1.0000
  N   N12       1.0  0.31879  0.25000  0.43278  1.0000
  N   N13       1.0  0.99816  0.25000  0.11138  1.0000
  N   N14       1.0  0.50185  0.75000  0.61138  1.0000
  N   N15       1.0  0.00185  0.75000  0.88862  1.0000
  N   N16       1.0  0.49816  0.25000  0.38862  1.0000
  O   O1        1.0  0.88003  0.01098  0.71799  1.0000
  O   O2        1.0  0.61998  0.98903  0.21799  1.0000
  O   O3        1.0  0.11998  0.51097  0.28201  1.0000
  O   O4        1.0  0.38002  0.48903  0.78200  1.0000
  O   O5        1.0  0.11997  0.98903  0.28201  1.0000
  O   O6        1.0  0.38002  0.01097  0.78201  1.0000
  O   O7        1.0  0.88002  0.48903  0.71799  1.0000
  O   O8        1.0  0.61997  0.51097  0.21799  1.0000
