data_image0
_chemical_formula_structural       Li4H16C10N2O10
_chemical_formula_sum              "Li4 H16 C10 N2 O10"
_cell_length_a       5.4194
_cell_length_b       8.47706
_cell_length_c       8.42393
_cell_angle_alpha    89.7391
_cell_angle_beta     93.4944
_cell_angle_gamma    111.308

_space_group_name_H-M_alt    "P 1"
_space_group_IT_number       1

loop_
  _space_group_symop_operation_xyz
  'x, y, z'

loop_
  _atom_site_type_symbol
  _atom_site_label
  _atom_site_symmetry_multiplicity
  _atom_site_fract_x
  _atom_site_fract_y
  _atom_site_fract_z
  _atom_site_occupancy
  Li  Li1       1.0  0.88433  0.58373  0.64446  1.0000
  Li  Li2       1.0  0.11571  0.41625  0.35553  1.0000
  Li  Li3       1.0  0.89353  0.19134  0.59021  1.0000
  Li  Li4       1.0  0.10646  0.80866  0.40978  1.0000
  H   H1        1.0  0.51222  0.28078  0.62266  1.0000
  H   H2        1.0  0.48778  0.71922  0.37735  1.0000
  H   H3        1.0  0.36730  0.13792  0.50069  1.0000
  H   H4        1.0  0.63267  0.86209  0.49930  1.0000
  H   H5        1.0  0.51616  0.66960  0.91350  1.0000
  H   H6        1.0  0.48387  0.33045  0.08652  1.0000
  H   H7        1.0  0.47918  0.77448  0.73650  1.0000
  H   H8        1.0  0.52079  0.22551  0.26350  1.0000
  H   H9        1.0  0.36809  0.95140  0.87781  1.0000
  H   H10       1.0  0.63187  0.04858  0.12218  1.0000
  H   H11       1.0  0.07974  0.88701  0.98450  1.0000
  H   H12       1.0  0.92024  0.11298  0.01548  1.0000
  H   H13       1.0  0.87718  0.62998  0.04362  1.0000
  H   H14       1.0  0.12278  0.37003  0.95638  1.0000
  H   H15       1.0  0.20161  0.64104  0.10603  1.0000
  H   H16       1.0  0.79841  0.35898  0.89399  1.0000
  C   C1        1.0  0.37614  0.66712  0.81147  1.0000
  C   C2        1.0  0.62392  0.33288  0.18854  1.0000
  C   C3        1.0  0.15884  0.86438  0.87325  1.0000
  C   C4        1.0  0.84112  0.13567  0.12672  1.0000
  C   C5        1.0  0.01775  0.92195  0.73538  1.0000
  C   C6        1.0  0.98223  0.07801  0.26463  1.0000
  C   C7        1.0  0.04393  0.59600  0.00915  1.0000
  C   C8        1.0  0.95602  0.40393  0.99085  1.0000
  C   C9        1.0  0.33126  0.51028  0.70795  1.0000
  C   C10       1.0  0.66881  0.48972  0.29208  1.0000
  N   N1        1.0  0.13384  0.68564  0.86051  1.0000
  N   N2        1.0  0.86622  0.31441  0.13946  1.0000
  O   O1        1.0  0.10551  0.43958  0.63348  1.0000
  O   O2        1.0  0.89454  0.56040  0.36653  1.0000
  O   O3        1.0  0.52813  0.46474  0.69818  1.0000
  O   O4        1.0  0.47190  0.53528  0.30187  1.0000
  O   O5        1.0  0.98059  0.05873  0.75346  1.0000
  O   O6        1.0  0.01935  0.94122  0.24652  1.0000
  O   O7        1.0  0.94299  0.82683  0.60949  1.0000
  O   O8        1.0  0.05702  0.17317  0.39051  1.0000
  O   O9        1.0  0.53036  0.17996  0.57076  1.0000
  O   O10       1.0  0.46962  0.82005  0.42922  1.0000
