data_image0
_chemical_formula_structural       Li4H14C8O12
_chemical_formula_sum              "Li4 H14 C8 O12"
_cell_length_a       5.10877
_cell_length_b       7.41663
_cell_length_c       9.36577
_cell_angle_alpha    105.262
_cell_angle_beta     94.9757
_cell_angle_gamma    87.193

_space_group_name_H-M_alt    "P 1"
_space_group_IT_number       1

loop_
  _space_group_symop_operation_xyz
  'x, y, z'

loop_
  _atom_site_type_symbol
  _atom_site_label
  _atom_site_symmetry_multiplicity
  _atom_site_fract_x
  _atom_site_fract_y
  _atom_site_fract_z
  _atom_site_occupancy
  Li  Li1       1.0  0.55431  0.81560  0.39733  1.0000
  Li  Li2       1.0  0.44568  0.18440  0.60267  1.0000
  Li  Li3       1.0  0.06090  0.22511  0.87117  1.0000
  Li  Li4       1.0  0.93910  0.77489  0.12883  1.0000
  H   H1        1.0  0.88680  0.80161  0.64824  1.0000
  H   H2        1.0  0.11320  0.19839  0.35177  1.0000
  H   H3        1.0  0.07928  0.66824  0.74903  1.0000
  H   H4        1.0  0.92073  0.33175  0.25097  1.0000
  H   H5        1.0  0.30019  0.50091  0.52073  1.0000
  H   H6        1.0  0.69981  0.49909  0.47926  1.0000
  H   H7        1.0  0.59967  0.08438  0.88223  1.0000
  H   H8        1.0  0.40033  0.91562  0.11777  1.0000
  H   H9        1.0  0.76616  0.10140  0.03256  1.0000
  H   H10       1.0  0.23384  0.89860  0.96744  1.0000
  H   H11       1.0  0.29428  0.46742  0.12017  1.0000
  H   H12       1.0  0.70572  0.53258  0.87983  1.0000
  H   H13       1.0  0.47781  0.33115  0.01035  1.0000
  H   H14       1.0  0.52220  0.66885  0.98965  1.0000
  C   C1        1.0  0.28416  0.87769  0.69089  1.0000
  C   C2        1.0  0.71584  0.12232  0.30911  1.0000
  C   C3        1.0  0.07919  0.72809  0.65329  1.0000
  C   C4        1.0  0.92082  0.27191  0.34671  1.0000
  C   C5        1.0  0.10880  0.57245  0.51093  1.0000
  C   C6        1.0  0.89120  0.42756  0.48907  1.0000
  C   C7        1.0  0.10282  0.64787  0.37326  1.0000
  C   C8        1.0  0.89718  0.35214  0.62674  1.0000
  O   O1        1.0  0.75016  0.15329  0.94400  1.0000
  O   O2        1.0  0.24984  0.84671  0.05600  1.0000
  O   O3        1.0  0.29273  0.37130  0.02435  1.0000
  O   O4        1.0  0.70728  0.62870  0.97565  1.0000
  O   O5        1.0  0.30701  0.62170  0.30002  1.0000
  O   O6        1.0  0.69298  0.37830  0.69999  1.0000
  O   O7        1.0  0.43083  0.90029  0.59476  1.0000
  O   O8        1.0  0.56917  0.09971  0.40524  1.0000
  O   O9        1.0  0.89536  0.73025  0.33443  1.0000
  O   O10       1.0  0.10464  0.26975  0.66556  1.0000
  O   O11       1.0  0.29379  0.98556  0.82285  1.0000
  O   O12       1.0  0.70621  0.01445  0.17716  1.0000
