data_image0
_chemical_formula_structural       Ca4H12C16N44O4
_chemical_formula_sum              "Ca4 H12 C16 N44 O4"
_cell_length_a       6.5908
_cell_length_b       9.90986
_cell_length_c       12.8712
_cell_angle_alpha    90.0001
_cell_angle_beta     90
_cell_angle_gamma    91.8438

_space_group_name_H-M_alt    "P 1"
_space_group_IT_number       1

loop_
  _space_group_symop_operation_xyz
  'x, y, z'

loop_
  _atom_site_type_symbol
  _atom_site_label
  _atom_site_symmetry_multiplicity
  _atom_site_fract_x
  _atom_site_fract_y
  _atom_site_fract_z
  _atom_site_occupancy
  Ca  Ca1       1.0  0.29824  0.86017  0.12396  1.0000
  Ca  Ca2       1.0  0.20176  0.63983  0.62396  1.0000
  Ca  Ca3       1.0  0.70176  0.13983  0.87604  1.0000
  Ca  Ca4       1.0  0.79824  0.36017  0.37604  1.0000
  H   H1        1.0  0.93289  0.85337  0.98174  1.0000
  H   H2        1.0  0.56711  0.64662  0.48174  1.0000
  H   H3        1.0  0.06711  0.14662  0.01826  1.0000
  H   H4        1.0  0.43289  0.35337  0.51826  1.0000
  H   H5        1.0  0.84733  0.83345  0.09513  1.0000
  H   H6        1.0  0.65267  0.66655  0.59513  1.0000
  H   H7        1.0  0.15267  0.16655  0.90487  1.0000
  H   H8        1.0  0.34733  0.33345  0.40487  1.0000
  H   H9        1.0  0.83067  0.51789  0.85338  1.0000
  H   H10       1.0  0.66933  0.98211  0.35338  1.0000
  H   H11       1.0  0.16933  0.48211  0.14662  1.0000
  H   H12       1.0  0.33067  0.01789  0.64662  1.0000
  C   C1        1.0  0.65039  0.26098  0.11752  1.0000
  C   C2        1.0  0.84961  0.23902  0.61752  1.0000
  C   C3        1.0  0.34961  0.73902  0.88248  1.0000
  C   C4        1.0  0.15039  0.76098  0.38248  1.0000
  C   C5        1.0  0.70048  0.38549  0.06269  1.0000
  C   C6        1.0  0.79952  0.11451  0.56270  1.0000
  C   C7        1.0  0.29953  0.61451  0.93731  1.0000
  C   C8        1.0  0.20047  0.88549  0.43731  1.0000
  C   C9        1.0  0.70734  0.52531  0.08685  1.0000
  C   C10       1.0  0.79266  0.97469  0.58686  1.0000
  C   C11       1.0  0.29266  0.47468  0.91315  1.0000
  C   C12       1.0  0.20734  0.02531  0.41315  1.0000
  C   C13       1.0  0.66315  0.60061  0.18024  1.0000
  C   C14       1.0  0.83685  0.89939  0.68025  1.0000
  C   C15       1.0  0.33685  0.39939  0.81975  1.0000
  C   C16       1.0  0.16315  0.10061  0.31975  1.0000
  N   N1        1.0  0.65579  0.23534  0.22015  1.0000
  N   N2        1.0  0.84421  0.26466  0.72015  1.0000
  N   N3        1.0  0.34422  0.76466  0.77986  1.0000
  N   N4        1.0  0.15578  0.73534  0.27986  1.0000
  N   N5        1.0  0.74848  0.37357  0.96108  1.0000
  N   N6        1.0  0.75152  0.12643  0.46108  1.0000
  N   N7        1.0  0.25153  0.62643  0.03892  1.0000
  N   N8        1.0  0.24848  0.87357  0.53892  1.0000
  N   N9        1.0  0.60707  0.76755  0.28151  1.0000
  N   N10       1.0  0.89293  0.73245  0.78151  1.0000
  N   N11       1.0  0.39293  0.23245  0.71849  1.0000
  N   N12       1.0  0.10707  0.26755  0.21849  1.0000
  N   N13       1.0  0.57380  0.05138  0.13582  1.0000
  N   N14       1.0  0.92620  0.44862  0.63582  1.0000
  N   N15       1.0  0.42620  0.94862  0.86418  1.0000
  N   N16       1.0  0.07380  0.55138  0.36418  1.0000
  N   N17       1.0  0.76129  0.59361  0.99947  1.0000
  N   N18       1.0  0.73871  0.90639  0.49947  1.0000
  N   N19       1.0  0.23871  0.40639  0.00053  1.0000
  N   N20       1.0  0.26129  0.09361  0.50053  1.0000
  N   N21       1.0  0.65480  0.55128  0.27733  1.0000
  N   N22       1.0  0.84519  0.94872  0.77733  1.0000
  N   N23       1.0  0.34520  0.44872  0.72267  1.0000
  N   N24       1.0  0.15481  0.05128  0.22267  1.0000
  N   N25       1.0  0.78355  0.49908  0.92894  1.0000
  N   N26       1.0  0.71645  0.00092  0.42894  1.0000
  N   N27       1.0  0.21645  0.50092  0.07105  1.0000
  N   N28       1.0  0.28355  0.99908  0.57106  1.0000
  N   N29       1.0  0.60055  0.14771  0.06386  1.0000
  N   N30       1.0  0.89945  0.35229  0.56386  1.0000
  N   N31       1.0  0.39946  0.85229  0.93614  1.0000
  N   N32       1.0  0.10055  0.64771  0.43614  1.0000
  N   N33       1.0  0.63161  0.73499  0.18055  1.0000
  N   N34       1.0  0.86839  0.76501  0.68055  1.0000
  N   N35       1.0  0.36839  0.26501  0.81945  1.0000
  N   N36       1.0  0.13161  0.23499  0.31945  1.0000
  N   N37       1.0  0.60781  0.10273  0.22894  1.0000
  N   N38       1.0  0.89219  0.39727  0.72895  1.0000
  N   N39       1.0  0.39219  0.89727  0.77106  1.0000
  N   N40       1.0  0.10781  0.60273  0.27106  1.0000
  N   N41       1.0  0.61914  0.65816  0.33884  1.0000
  N   N42       1.0  0.88086  0.84184  0.83884  1.0000
  N   N43       1.0  0.38086  0.34184  0.66116  1.0000
  N   N44       1.0  0.11914  0.15816  0.16116  1.0000
  O   O1        1.0  0.96585  0.86910  0.05625  1.0000
  O   O2        1.0  0.53416  0.63089  0.55625  1.0000
  O   O3        1.0  0.03416  0.13089  0.94375  1.0000
  O   O4        1.0  0.46584  0.36911  0.44375  1.0000
