data_image0
_chemical_formula_structural       MnH12C8N6O2
_chemical_formula_sum              "Mn1 H12 C8 N6 O2"
_cell_length_a       7.12742
_cell_length_b       7.11439
_cell_length_c       7.11452
_cell_angle_alpha    64.1729
_cell_angle_beta     71.5028
_cell_angle_gamma    71.5054

_space_group_name_H-M_alt    "P 1"
_space_group_IT_number       1

loop_
  _space_group_symop_operation_xyz
  'x, y, z'

loop_
  _atom_site_type_symbol
  _atom_site_label
  _atom_site_symmetry_multiplicity
  _atom_site_fract_x
  _atom_site_fract_y
  _atom_site_fract_z
  _atom_site_occupancy
  Mn  Mn1       1.0  0.50000  1.00000  0.00000  1.0000
  H   H1        1.0  0.78460  0.75947  0.75944  1.0000
  H   H2        1.0  0.21540  0.24054  0.24057  1.0000
  H   H3        1.0  0.99696  0.77824  0.01222  1.0000
  H   H4        1.0  0.00306  0.98777  0.22175  1.0000
  H   H5        1.0  0.00304  0.22176  0.98777  1.0000
  H   H6        1.0  0.99694  0.01223  0.77825  1.0000
  H   H7        1.0  0.29594  0.73076  0.73075  1.0000
  H   H8        1.0  0.70406  0.26924  0.26924  1.0000
  H   H9        1.0  0.14216  0.78829  0.55106  1.0000
  H   H10       1.0  0.85784  0.44895  0.21172  1.0000
  H   H11       1.0  0.85784  0.21172  0.44894  1.0000
  H   H12       1.0  0.14215  0.55106  0.78828  1.0000
  C   C1        1.0  0.67013  0.44574  0.74894  1.0000
  C   C2        1.0  0.32988  0.25107  0.55424  1.0000
  C   C3        1.0  0.32986  0.55424  0.25108  1.0000
  C   C4        1.0  0.67012  0.74893  0.44575  1.0000
  C   C5        1.0  0.98446  0.84423  0.84425  1.0000
  C   C6        1.0  0.01554  0.15577  0.15575  1.0000
  C   C7        1.0  0.14919  0.72071  0.72071  1.0000
  C   C8        1.0  0.85081  0.27929  0.27929  1.0000
  N   N1        1.0  0.62764  0.28220  0.87316  1.0000
  N   N2        1.0  0.37239  0.12684  0.71780  1.0000
  N   N3        1.0  0.37236  0.71782  0.12683  1.0000
  N   N4        1.0  0.62761  0.87316  0.28220  1.0000
  N   N5        1.0  0.72765  0.62490  0.62487  1.0000
  N   N6        1.0  0.27236  0.37508  0.37515  1.0000
  O   O1        1.0  0.78344  0.84182  0.84189  1.0000
  O   O2        1.0  0.21656  0.15819  0.15810  1.0000
