data_image0
_chemical_formula_structural       Cs4H16C16N44O4
_chemical_formula_sum              "Cs4 H16 C16 N44 O4"
_cell_length_a       8.87462
_cell_length_b       10.5542
_cell_length_c       11.3875
_cell_angle_alpha    97.8401
_cell_angle_beta     104.868
_cell_angle_gamma    90.7832

_space_group_name_H-M_alt    "P 1"
_space_group_IT_number       1

loop_
  _space_group_symop_operation_xyz
  'x, y, z'

loop_
  _atom_site_type_symbol
  _atom_site_label
  _atom_site_symmetry_multiplicity
  _atom_site_fract_x
  _atom_site_fract_y
  _atom_site_fract_z
  _atom_site_occupancy
  Cs  Cs1       1.0  0.51650  0.30594  0.01618  1.0000
  Cs  Cs2       1.0  0.48350  0.69406  0.98381  1.0000
  Cs  Cs3       1.0  0.20619  0.05551  0.10396  1.0000
  Cs  Cs4       1.0  0.79381  0.94449  0.89604  1.0000
  H   H1        1.0  0.87867  0.29995  0.03779  1.0000
  H   H2        1.0  0.12133  0.70005  0.96221  1.0000
  H   H3        1.0  0.90549  0.23207  0.15601  1.0000
  H   H4        1.0  0.09450  0.76793  0.84399  1.0000
  H   H5        1.0  0.80657  0.48104  0.91411  1.0000
  H   H6        1.0  0.19343  0.51896  0.08589  1.0000
  H   H7        1.0  0.87475  0.52592  0.05499  1.0000
  H   H8        1.0  0.12525  0.47408  0.94500  1.0000
  H   H9        1.0  0.91622  0.38429  0.67356  1.0000
  H   H10       1.0  0.08378  0.61571  0.32644  1.0000
  H   H11       1.0  0.24128  0.00251  0.55707  1.0000
  H   H12       1.0  0.75872  0.99749  0.44293  1.0000
  H   H13       1.0  0.16435  0.60924  0.57797  1.0000
  H   H14       1.0  0.83565  0.39076  0.42203  1.0000
  H   H15       1.0  0.50102  0.23762  0.45763  1.0000
  H   H16       1.0  0.49898  0.76238  0.54237  1.0000
  C   C1        1.0  0.04410  0.19836  0.52012  1.0000
  C   C2        1.0  0.95591  0.80164  0.47989  1.0000
  C   C3        1.0  0.06279  0.22048  0.65098  1.0000
  C   C4        1.0  0.93721  0.77952  0.34903  1.0000
  C   C5        1.0  0.15141  0.16139  0.74718  1.0000
  C   C6        1.0  0.84859  0.83861  0.25282  1.0000
  C   C7        1.0  0.25320  0.05642  0.74771  1.0000
  C   C8        1.0  0.74680  0.94358  0.25229  1.0000
  C   C9        1.0  0.30017  0.42996  0.42372  1.0000
  C   C10       1.0  0.69983  0.57004  0.57628  1.0000
  C   C11       1.0  0.31364  0.44709  0.55387  1.0000
  C   C12       1.0  0.68637  0.55291  0.44613  1.0000
  C   C13       1.0  0.39754  0.38347  0.64846  1.0000
  C   C14       1.0  0.60246  0.61653  0.35154  1.0000
  C   C15       1.0  0.49994  0.27870  0.64697  1.0000
  C   C16       1.0  0.50006  0.72130  0.35303  1.0000
  N   N1        1.0  0.11610  0.10653  0.46319  1.0000
  N   N2        1.0  0.88390  0.89347  0.53681  1.0000
  N   N3        1.0  0.07186  0.11968  0.34399  1.0000
  N   N4        1.0  0.92814  0.88032  0.65601  1.0000
  N   N5        1.0  0.97737  0.21548  0.32906  1.0000
  N   N6        1.0  0.02263  0.78452  0.67094  1.0000
  N   N7        1.0  0.95768  0.26741  0.43837  1.0000
  N   N8        1.0  0.04232  0.73259  0.56163  1.0000
  N   N9        1.0  0.99653  0.31591  0.70916  1.0000
  N   N10       1.0  0.00347  0.68409  0.29084  1.0000
  N   N11       1.0  0.03976  0.31781  0.83136  1.0000
  N   N12       1.0  0.96024  0.68219  0.16864  1.0000
  N   N13       1.0  0.13363  0.22439  0.85550  1.0000
  N   N14       1.0  0.86636  0.77561  0.14450  1.0000
  N   N15       1.0  0.33556  0.01173  0.84818  1.0000
  N   N16       1.0  0.66444  0.98827  0.15182  1.0000
  N   N17       1.0  0.41561  0.91508  0.80643  1.0000
  N   N18       1.0  0.58439  0.08492  0.19357  1.0000
  N   N19       1.0  0.38650  0.89969  0.68684  1.0000
  N   N20       1.0  0.61350  0.10031  0.31316  1.0000
  N   N21       1.0  0.28496  0.98787  0.64888  1.0000
  N   N22       1.0  0.71504  0.01213  0.35112  1.0000
  N   N23       1.0  0.37353  0.34047  0.36548  1.0000
  N   N24       1.0  0.62647  0.65953  0.63452  1.0000
  N   N25       1.0  0.33066  0.35678  0.24691  1.0000
  N   N26       1.0  0.66934  0.64322  0.75309  1.0000
  N   N27       1.0  0.23565  0.45238  0.23397  1.0000
  N   N28       1.0  0.76435  0.54762  0.76603  1.0000
  N   N29       1.0  0.21420  0.50057  0.34342  1.0000
  N   N30       1.0  0.78580  0.49943  0.65658  1.0000
  N   N31       1.0  0.24005  0.53741  0.61208  1.0000
  N   N32       1.0  0.75995  0.46259  0.38792  1.0000
  N   N33       1.0  0.27426  0.53179  0.73309  1.0000
  N   N34       1.0  0.72574  0.46821  0.26691  1.0000
  N   N35       1.0  0.36946  0.43906  0.75621  1.0000
  N   N36       1.0  0.63054  0.56094  0.24379  1.0000
  N   N37       1.0  0.57298  0.22474  0.74476  1.0000
  N   N38       1.0  0.42702  0.77526  0.25524  1.0000
  N   N39       1.0  0.65827  0.13278  0.70207  1.0000
  N   N40       1.0  0.34173  0.86722  0.29793  1.0000
  N   N41       1.0  0.64038  0.12792  0.58396  1.0000
  N   N42       1.0  0.35962  0.87208  0.41604  1.0000
  N   N43       1.0  0.54117  0.21872  0.54831  1.0000
  N   N44       1.0  0.45883  0.78127  0.45169  1.0000
  O   O1        1.0  0.88653  0.21485  0.06573  1.0000
  O   O2        1.0  0.11347  0.78515  0.93427  1.0000
  O   O3        1.0  0.80749  0.45821  0.99606  1.0000
  O   O4        1.0  0.19251  0.54179  0.00394  1.0000
