data_image0
_chemical_formula_structural       Na2H12C8N22O4
_chemical_formula_sum              "Na2 H12 C8 N22 O4"
_cell_length_a       6.15666
_cell_length_b       7.4895
_cell_length_c       11.6614
_cell_angle_alpha    75.2821
_cell_angle_beta     77.3633
_cell_angle_gamma    88.3031

_space_group_name_H-M_alt    "P 1"
_space_group_IT_number       1

loop_
  _space_group_symop_operation_xyz
  'x, y, z'

loop_
  _atom_site_type_symbol
  _atom_site_label
  _atom_site_symmetry_multiplicity
  _atom_site_fract_x
  _atom_site_fract_y
  _atom_site_fract_z
  _atom_site_occupancy
  Na  Na1       1.0  0.28609  0.46485  0.42395  1.0000
  Na  Na2       1.0  0.71391  0.53515  0.57605  1.0000
  H   H1        1.0  0.48451  0.45389  0.12413  1.0000
  H   H2        1.0  0.51549  0.54611  0.87587  1.0000
  H   H3        1.0  0.23133  0.13946  0.01049  1.0000
  H   H4        1.0  0.76867  0.86054  0.98951  1.0000
  H   H5        1.0  0.52269  0.79021  0.35908  1.0000
  H   H6        1.0  0.47731  0.20979  0.64092  1.0000
  H   H7        1.0  0.93832  0.17621  0.55714  1.0000
  H   H8        1.0  0.06168  0.82379  0.44287  1.0000
  H   H9        1.0  0.73298  0.67890  0.32720  1.0000
  H   H10       1.0  0.26702  0.32110  0.67280  1.0000
  H   H11       1.0  0.87290  0.26119  0.43354  1.0000
  H   H12       1.0  0.12710  0.73881  0.56646  1.0000
  C   C1        1.0  0.85566  0.32444  0.97609  1.0000
  C   C2        1.0  0.14434  0.67556  0.02391  1.0000
  C   C3        1.0  0.79326  0.29840  0.10584  1.0000
  C   C4        1.0  0.20674  0.70160  0.89416  1.0000
  C   C5        1.0  0.89218  0.20752  0.20135  1.0000
  C   C6        1.0  0.10782  0.79248  0.79865  1.0000
  C   C7        1.0  0.09620  0.10832  0.20046  1.0000
  C   C8        1.0  0.90380  0.89168  0.79955  1.0000
  N   N1        1.0  0.85272  0.41117  0.78661  1.0000
  N   N2        1.0  0.14728  0.58883  0.21339  1.0000
  N   N3        1.0  0.03640  0.31942  0.79846  1.0000
  N   N4        1.0  0.96360  0.68058  0.20154  1.0000
  N   N5        1.0  0.04409  0.26293  0.91632  1.0000
  N   N6        1.0  0.95592  0.73707  0.08367  1.0000
  N   N7        1.0  0.60687  0.36901  0.16192  1.0000
  N   N8        1.0  0.39313  0.63099  0.83808  1.0000
  N   N9        1.0  0.76070  0.23038  0.30733  1.0000
  N   N10       1.0  0.23930  0.76962  0.69267  1.0000
  N   N11       1.0  0.24734  0.09088  0.10075  1.0000
  N   N12       1.0  0.75266  0.90912  0.89925  1.0000
  N   N13       1.0  0.58891  0.32788  0.28246  1.0000
  N   N14       1.0  0.41109  0.67212  0.71754  1.0000
  N   N15       1.0  0.73537  0.41682  0.89713  1.0000
  N   N16       1.0  0.26463  0.58318  0.10287  1.0000
  N   N17       1.0  0.17311  0.02061  0.29820  1.0000
  N   N18       1.0  0.82689  0.97939  0.70180  1.0000
  N   N19       1.0  0.41845  0.99267  0.13601  1.0000
  N   N20       1.0  0.58155  0.00733  0.86399  1.0000
  N   N21       1.0  0.37100  0.95290  0.25452  1.0000
  N   N22       1.0  0.62900  0.04710  0.74549  1.0000
  O   O1        1.0  0.93908  0.29448  0.49601  1.0000
  O   O2        1.0  0.06092  0.70552  0.50399  1.0000
  O   O3        1.0  0.60153  0.67992  0.39405  1.0000
  O   O4        1.0  0.39847  0.32008  0.60596  1.0000
