data_image0
_chemical_formula_structural       Cd2H20C20N12Cl4O8
_chemical_formula_sum              "Cd2 H20 C20 N12 Cl4 O8"
_cell_length_a       3.71839
_cell_length_b       13.1728
_cell_length_c       15.3895
_cell_angle_alpha    90.002
_cell_angle_beta     90.0045
_cell_angle_gamma    89.9997

_space_group_name_H-M_alt    "P 1"
_space_group_IT_number       1

loop_
  _space_group_symop_operation_xyz
  'x, y, z'

loop_
  _atom_site_type_symbol
  _atom_site_label
  _atom_site_symmetry_multiplicity
  _atom_site_fract_x
  _atom_site_fract_y
  _atom_site_fract_z
  _atom_site_occupancy
  Cd  Cd1       1.0  0.92306  0.00001  1.00000  1.0000
  Cd  Cd2       1.0  0.07694  0.50001  0.50000  1.0000
  H   H1        1.0  0.76153  0.22907  0.99585  1.0000
  H   H2        1.0  0.76150  0.77095  0.00416  1.0000
  H   H3        1.0  0.23849  0.72906  0.50416  1.0000
  H   H4        1.0  0.23850  0.27095  0.49582  1.0000
  H   H5        1.0  0.91963  0.34457  0.03601  1.0000
  H   H6        1.0  0.91960  0.65545  0.96402  1.0000
  H   H7        1.0  0.08038  0.84456  0.46401  1.0000
  H   H8        1.0  0.08041  0.15545  0.53596  1.0000
  H   H9        1.0  0.00778  0.99235  0.20009  1.0000
  H   H10       1.0  0.00772  0.00765  0.79991  1.0000
  H   H11       1.0  0.99221  0.49235  0.29991  1.0000
  H   H12       1.0  0.99224  0.50765  0.70008  1.0000
  H   H13       1.0  0.43464  0.26998  0.30751  1.0000
  H   H14       1.0  0.43449  0.73001  0.69251  1.0000
  H   H15       1.0  0.56539  0.76997  0.19250  1.0000
  H   H16       1.0  0.56555  0.23002  0.80747  1.0000
  H   H17       1.0  0.25793  0.35769  0.17004  1.0000
  H   H18       1.0  0.25784  0.64231  0.82999  1.0000
  H   H19       1.0  0.74209  0.85769  0.32998  1.0000
  H   H20       1.0  0.74221  0.14231  0.67000  1.0000
  C   C1        1.0  0.02353  0.22168  0.11340  1.0000
  C   C2        1.0  0.02347  0.77833  0.88662  1.0000
  C   C3        1.0  0.97648  0.72168  0.38662  1.0000
  C   C4        1.0  0.97652  0.27833  0.61336  1.0000
  C   C5        1.0  0.21746  0.12533  0.26441  1.0000
  C   C6        1.0  0.21736  0.87466  0.73561  1.0000
  C   C7        1.0  0.78251  0.62533  0.23561  1.0000
  C   C8        1.0  0.78264  0.37467  0.76438  1.0000
  C   C9        1.0  0.05839  0.07357  0.19549  1.0000
  C   C10       1.0  0.05832  0.92643  0.80452  1.0000
  C   C11       1.0  0.94160  0.57357  0.30452  1.0000
  C   C12       1.0  0.94165  0.42643  0.69548  1.0000
  C   C13       1.0  0.29897  0.22929  0.25536  1.0000
  C   C14       1.0  0.29886  0.77070  0.74466  1.0000
  C   C15       1.0  0.70103  0.72928  0.24466  1.0000
  C   C16       1.0  0.70116  0.27070  0.75532  1.0000
  C   C17       1.0  0.20158  0.27747  0.18008  1.0000
  C   C18       1.0  0.20149  0.72253  0.81994  1.0000
  C   C19       1.0  0.79843  0.77746  0.31994  1.0000
  C   C20       1.0  0.79853  0.22254  0.68004  1.0000
  N   N1        1.0  0.97047  0.11919  0.12095  1.0000
  N   N2        1.0  0.97042  0.88081  0.87906  1.0000
  N   N3        1.0  0.02953  0.61919  0.37906  1.0000
  N   N4        1.0  0.02955  0.38082  0.62093  1.0000
  N   N5        1.0  0.90458  0.26793  0.04169  1.0000
  N   N6        1.0  0.90454  0.73208  0.95833  1.0000
  N   N7        1.0  0.09543  0.76793  0.45833  1.0000
  N   N8        1.0  0.09545  0.23208  0.54165  1.0000
  N   N9        1.0  0.30995  0.07176  0.34253  1.0000
  N   N10       1.0  0.30985  0.92822  0.65747  1.0000
  N   N11       1.0  0.69004  0.57175  0.15747  1.0000
  N   N12       1.0  0.69015  0.42824  0.84252  1.0000
  Cl  Cl1       1.0  0.43244  0.89485  0.07971  1.0000
  Cl  Cl2       1.0  0.43238  0.10518  0.92029  1.0000
  Cl  Cl3       1.0  0.56757  0.39485  0.42029  1.0000
  Cl  Cl4       1.0  0.56763  0.60518  0.57971  1.0000
  O   O1        1.0  0.47352  0.11896  0.40081  1.0000
  O   O2        1.0  0.47338  0.88101  0.59921  1.0000
  O   O3        1.0  0.52651  0.61896  0.09920  1.0000
  O   O4        1.0  0.52662  0.38102  0.90078  1.0000
  O   O5        1.0  0.22546  0.97997  0.34868  1.0000
  O   O6        1.0  0.22539  0.02001  0.65132  1.0000
  O   O7        1.0  0.77447  0.47996  0.15132  1.0000
  O   O8        1.0  0.77458  0.52002  0.84868  1.0000
