data_image0
_chemical_formula_structural       Er4H12C16O36
_chemical_formula_sum              "Er4 H12 C16 O36"
_cell_length_a       10.5367
_cell_length_b       9.89351
_cell_length_c       11.9683
_cell_angle_alpha    89.9994
_cell_angle_beta     107.123
_cell_angle_gamma    89.9992

_space_group_name_H-M_alt    "P 1"
_space_group_IT_number       1

loop_
  _space_group_symop_operation_xyz
  'x, y, z'

loop_
  _atom_site_type_symbol
  _atom_site_label
  _atom_site_symmetry_multiplicity
  _atom_site_fract_x
  _atom_site_fract_y
  _atom_site_fract_z
  _atom_site_occupancy
  Er  Er1       1.0  0.20597  0.92941  0.38457  1.0000
  Er  Er2       1.0  0.29403  0.42942  0.11544  1.0000
  Er  Er3       1.0  0.79404  0.07059  0.61545  1.0000
  Er  Er4       1.0  0.70596  0.57058  0.88456  1.0000
  H   H1        1.0  0.98243  0.84015  0.18619  1.0000
  H   H2        1.0  0.51759  0.34014  0.31380  1.0000
  H   H3        1.0  0.01757  0.15988  0.81385  1.0000
  H   H4        1.0  0.48241  0.65987  0.68615  1.0000
  H   H5        1.0  0.13205  0.95004  0.11247  1.0000
  H   H6        1.0  0.36797  0.45003  0.38752  1.0000
  H   H7        1.0  0.86792  0.05000  0.88753  1.0000
  H   H8        1.0  0.63206  0.54999  0.61247  1.0000
  H   H9        1.0  0.09173  0.74308  0.16236  1.0000
  H   H10       1.0  0.40829  0.24309  0.33764  1.0000
  H   H11       1.0  0.90825  0.25694  0.83763  1.0000
  H   H12       1.0  0.59174  0.75693  0.66237  1.0000
  C   C1        1.0  0.28366  0.62442  0.39347  1.0000
  C   C2        1.0  0.21635  0.12442  0.10652  1.0000
  C   C3        1.0  0.71634  0.37558  0.60651  1.0000
  C   C4        1.0  0.78365  0.87558  0.89348  1.0000
  C   C5        1.0  0.34457  0.68373  0.30027  1.0000
  C   C6        1.0  0.15544  0.18375  0.19972  1.0000
  C   C7        1.0  0.65542  0.31625  0.69972  1.0000
  C   C8        1.0  0.84457  0.81626  0.80029  1.0000
  C   C9        1.0  0.49616  0.05942  0.45751  1.0000
  C   C10       1.0  0.00383  0.55942  0.04250  1.0000
  C   C11       1.0  0.50384  0.94058  0.54252  1.0000
  C   C12       1.0  0.99617  0.44059  0.95749  1.0000
  C   C13       1.0  0.94680  0.95958  0.45288  1.0000
  C   C14       1.0  0.55319  0.45958  0.04711  1.0000
  C   C15       1.0  0.05321  0.04037  0.54713  1.0000
  C   C16       1.0  0.44680  0.54039  0.95288  1.0000
  O   O1        1.0  0.20771  0.69629  0.42950  1.0000
  O   O2        1.0  0.29231  0.19629  0.07051  1.0000
  O   O3        1.0  0.79229  0.30370  0.57049  1.0000
  O   O4        1.0  0.70769  0.80370  0.92949  1.0000
  O   O5        1.0  0.31478  0.50136  0.43225  1.0000
  O   O6        1.0  0.18523  0.00137  0.06775  1.0000
  O   O7        1.0  0.68524  0.49864  0.56775  1.0000
  O   O8        1.0  0.81474  0.99866  0.93224  1.0000
  O   O9        1.0  0.34375  0.81078  0.29494  1.0000
  O   O10       1.0  0.15626  0.31078  0.20507  1.0000
  O   O11       1.0  0.65625  0.18922  0.70508  1.0000
  O   O12       1.0  0.84374  0.68921  0.79492  1.0000
  O   O13       1.0  0.38527  0.60182  0.23776  1.0000
  O   O14       1.0  0.11474  0.10181  0.26224  1.0000
  O   O15       1.0  0.61474  0.39819  0.76222  1.0000
  O   O16       1.0  0.88526  0.89821  0.73778  1.0000
  O   O17       1.0  0.38080  0.08844  0.38987  1.0000
  O   O18       1.0  0.11919  0.58844  0.11014  1.0000
  O   O19       1.0  0.61920  0.91156  0.61016  1.0000
  O   O20       1.0  0.88080  0.41156  0.88986  1.0000
  O   O21       1.0  0.60186  0.12029  0.46129  1.0000
  O   O22       1.0  0.89813  0.62028  0.03872  1.0000
  O   O23       1.0  0.39815  0.87970  0.53873  1.0000
  O   O24       1.0  0.10185  0.37971  0.96127  1.0000
  O   O25       1.0  0.98716  0.89950  0.37639  1.0000
  O   O26       1.0  0.51282  0.39948  0.12359  1.0000
  O   O27       1.0  0.01283  0.10050  0.62359  1.0000
  O   O28       1.0  0.48717  0.60052  0.87641  1.0000
  O   O29       1.0  0.82973  0.96117  0.46074  1.0000
  O   O30       1.0  0.67026  0.46116  0.03924  1.0000
  O   O31       1.0  0.17029  0.03874  0.53930  1.0000
  O   O32       1.0  0.32972  0.53880  0.96073  1.0000
  O   O33       1.0  0.07580  0.83678  0.18809  1.0000
  O   O34       1.0  0.42421  0.33677  0.31192  1.0000
  O   O35       1.0  0.92419  0.16325  0.81191  1.0000
  O   O36       1.0  0.57581  0.66324  0.68807  1.0000
