data_image0
_chemical_formula_structural       Cu12H28C36I12N12
_chemical_formula_sum              "Cu12 H28 C36 I12 N12"
_cell_length_a       8.29025
_cell_length_b       8.54166
_cell_length_c       19.7764
_cell_angle_alpha    90.0006
_cell_angle_beta     89.9996
_cell_angle_gamma    100.7

_space_group_name_H-M_alt    "P 1"
_space_group_IT_number       1

loop_
  _space_group_symop_operation_xyz
  'x, y, z'

loop_
  _atom_site_type_symbol
  _atom_site_label
  _atom_site_symmetry_multiplicity
  _atom_site_fract_x
  _atom_site_fract_y
  _atom_site_fract_z
  _atom_site_occupancy
  Cu  Cu1       1.0  0.92214  0.12461  0.46726  1.0000
  Cu  Cu2       1.0  0.57786  0.87539  0.96727  1.0000
  Cu  Cu3       1.0  0.07786  0.87539  0.53273  1.0000
  Cu  Cu4       1.0  0.42214  0.12461  0.03273  1.0000
  Cu  Cu5       1.0  0.77317  0.87812  0.62733  1.0000
  Cu  Cu6       1.0  0.72683  0.12187  0.12733  1.0000
  Cu  Cu7       1.0  0.22683  0.12188  0.37267  1.0000
  Cu  Cu8       1.0  0.27317  0.87812  0.87267  1.0000
  Cu  Cu9       1.0  0.09126  0.27257  0.28388  1.0000
  Cu  Cu10      1.0  0.40874  0.72743  0.78388  1.0000
  Cu  Cu11      1.0  0.90874  0.72742  0.71612  1.0000
  Cu  Cu12      1.0  0.59127  0.27257  0.21612  1.0000
  H   H1        1.0  0.24977  0.64563  0.65491  1.0000
  H   H2        1.0  0.25023  0.35437  0.15490  1.0000
  H   H3        1.0  0.75024  0.35437  0.34509  1.0000
  H   H4        1.0  0.74977  0.64563  0.84510  1.0000
  H   H5        1.0  0.29534  0.48520  0.55487  1.0000
  H   H6        1.0  0.20466  0.51481  0.05487  1.0000
  H   H7        1.0  0.70466  0.51481  0.44513  1.0000
  H   H8        1.0  0.79534  0.48520  0.94513  1.0000
  H   H9        1.0  0.61814  0.25998  0.67909  1.0000
  H   H10       1.0  0.88185  0.74001  0.17909  1.0000
  H   H11       1.0  0.38185  0.74001  0.32091  1.0000
  H   H12       1.0  0.11815  0.25999  0.82091  1.0000
  H   H13       1.0  0.55569  0.42918  0.77431  1.0000
  H   H14       1.0  0.94430  0.57081  0.27431  1.0000
  H   H15       1.0  0.44430  0.57081  0.22569  1.0000
  H   H16       1.0  0.05569  0.42919  0.72569  1.0000
  H   H17       1.0  0.25947  0.25607  0.50267  1.0000
  H   H18       1.0  0.24053  0.74392  0.00267  1.0000
  H   H19       1.0  0.74054  0.74393  0.49733  1.0000
  H   H20       1.0  0.75947  0.25607  0.99733  1.0000
  H   H21       1.0  0.59207  0.06938  0.38424  1.0000
  H   H22       1.0  0.90793  0.93062  0.88424  1.0000
  H   H23       1.0  0.40793  0.93062  0.61576  1.0000
  H   H24       1.0  0.09207  0.06937  0.11576  1.0000
  H   H25       1.0  0.75553  0.26288  0.57061  1.0000
  H   H26       1.0  0.74447  0.73712  0.07061  1.0000
  H   H27       1.0  0.24447  0.73713  0.42939  1.0000
  H   H28       1.0  0.25553  0.26288  0.92939  1.0000
  C   C1        1.0  0.33200  0.55992  0.65780  1.0000
  C   C2        1.0  0.16800  0.44008  0.15780  1.0000
  C   C3        1.0  0.66800  0.44009  0.34220  1.0000
  C   C4        1.0  0.83200  0.55992  0.84220  1.0000
  C   C5        1.0  0.35764  0.46928  0.60222  1.0000
  C   C6        1.0  0.14237  0.53073  0.10222  1.0000
  C   C7        1.0  0.64237  0.53074  0.39778  1.0000
  C   C8        1.0  0.85764  0.46927  0.89778  1.0000
  C   C9        1.0  0.46640  0.36212  0.60735  1.0000
  C   C10       1.0  0.03360  0.63788  0.10735  1.0000
  C   C11       1.0  0.53360  0.63788  0.39265  1.0000
  C   C12       1.0  0.96640  0.36212  0.89265  1.0000
  C   C13       1.0  0.53786  0.34586  0.67068  1.0000
  C   C14       1.0  0.96213  0.65413  0.17068  1.0000
  C   C15       1.0  0.46213  0.65414  0.32932  1.0000
  C   C16       1.0  0.03787  0.34586  0.82932  1.0000
  C   C17       1.0  0.50340  0.43975  0.72429  1.0000
  C   C18       1.0  0.99659  0.56024  0.22428  1.0000
  C   C19       1.0  0.49660  0.56024  0.27572  1.0000
  C   C20       1.0  0.00340  0.43976  0.77571  1.0000
  C   C21       1.0  0.50184  0.27453  0.54698  1.0000
  C   C22       1.0  0.99816  0.72547  0.04698  1.0000
  C   C23       1.0  0.49816  0.72547  0.45302  1.0000
  C   C24       1.0  0.00185  0.27453  0.95302  1.0000
  C   C25       1.0  0.38316  0.23241  0.49684  1.0000
  C   C26       1.0  0.11684  0.76759  0.99684  1.0000
  C   C27       1.0  0.61684  0.76760  0.50316  1.0000
  C   C28       1.0  0.88316  0.23241  0.00316  1.0000
  C   C29       1.0  0.56537  0.12640  0.43132  1.0000
  C   C30       1.0  0.93462  0.87360  0.93132  1.0000
  C   C31       1.0  0.43463  0.87360  0.56868  1.0000
  C   C32       1.0  0.06538  0.12640  0.06868  1.0000
  C   C33       1.0  0.65461  0.23432  0.53474  1.0000
  C   C34       1.0  0.84539  0.76568  0.03474  1.0000
  C   C35       1.0  0.34539  0.76569  0.46526  1.0000
  C   C36       1.0  0.15461  0.23432  0.96526  1.0000
  I   I1        1.0  0.01574  0.12053  0.59813  1.0000
  I   I2        1.0  0.48425  0.87947  0.09813  1.0000
  I   I3        1.0  0.98426  0.87947  0.40187  1.0000
  I   I4        1.0  0.51574  0.12053  0.90187  1.0000
  I   I5        1.0  0.08130  0.38454  0.40614  1.0000
  I   I6        1.0  0.41870  0.61546  0.90614  1.0000
  I   I7        1.0  0.91870  0.61546  0.59386  1.0000
  I   I8        1.0  0.58130  0.38453  0.09386  1.0000
  I   I9        1.0  0.70101  0.91302  0.75289  1.0000
  I   I10       1.0  0.79899  0.08697  0.25289  1.0000
  I   I11       1.0  0.29899  0.08697  0.24711  1.0000
  I   I12       1.0  0.20101  0.91302  0.74711  1.0000
  N   N1        1.0  0.40556  0.54892  0.71801  1.0000
  N   N2        1.0  0.09444  0.45107  0.21801  1.0000
  N   N3        1.0  0.59444  0.45108  0.28199  1.0000
  N   N4        1.0  0.90556  0.54893  0.78199  1.0000
  N   N5        1.0  0.41394  0.16008  0.43900  1.0000
  N   N6        1.0  0.08605  0.83992  0.93900  1.0000
  N   N7        1.0  0.58605  0.83992  0.56100  1.0000
  N   N8        1.0  0.91395  0.16008  0.06100  1.0000
  N   N9        1.0  0.68651  0.15980  0.47733  1.0000
  N   N10       1.0  0.81350  0.84020  0.97733  1.0000
  N   N11       1.0  0.31349  0.84020  0.52267  1.0000
  N   N12       1.0  0.18651  0.15980  0.02267  1.0000
