data_image0
_chemical_formula_structural       Sm4H12C16O36
_chemical_formula_sum              "Sm4 H12 C16 O36"
_cell_length_a       10.2857
_cell_length_b       10.459
_cell_length_c       11.9592
_cell_angle_alpha    90.0007
_cell_angle_beta     109.274
_cell_angle_gamma    89.9984

_space_group_name_H-M_alt    "P 1"
_space_group_IT_number       1

loop_
  _space_group_symop_operation_xyz
  'x, y, z'

loop_
  _atom_site_type_symbol
  _atom_site_label
  _atom_site_symmetry_multiplicity
  _atom_site_fract_x
  _atom_site_fract_y
  _atom_site_fract_z
  _atom_site_occupancy
  Sm  Sm1       1.0  0.19637  0.39800  0.37514  1.0000
  Sm  Sm2       1.0  0.30363  0.89800  0.12487  1.0000
  Sm  Sm3       1.0  0.80362  0.60199  0.62488  1.0000
  Sm  Sm4       1.0  0.69638  0.10200  0.87512  1.0000
  H   H1        1.0  0.11117  0.44190  0.10378  1.0000
  H   H2        1.0  0.38883  0.94188  0.39624  1.0000
  H   H3        1.0  0.88885  0.55811  0.89623  1.0000
  H   H4        1.0  0.61114  0.05810  0.60379  1.0000
  H   H5        1.0  0.99185  0.25836  0.12466  1.0000
  H   H6        1.0  0.50817  0.75835  0.37535  1.0000
  H   H7        1.0  0.00817  0.74165  0.87532  1.0000
  H   H8        1.0  0.49184  0.24165  0.62468  1.0000
  H   H9        1.0  0.94497  0.38497  0.17364  1.0000
  H   H10       1.0  0.55504  0.88495  0.32635  1.0000
  H   H11       1.0  0.05505  0.61503  0.82637  1.0000
  H   H12       1.0  0.44495  0.11504  0.67366  1.0000
  C   C1        1.0  0.51550  0.44662  0.54719  1.0000
  C   C2        1.0  0.98449  0.94662  0.95280  1.0000
  C   C3        1.0  0.48451  0.55337  0.45278  1.0000
  C   C4        1.0  0.01549  0.05338  0.04720  1.0000
  C   C5        1.0  0.15296  0.65728  0.20312  1.0000
  C   C6        1.0  0.34705  0.15729  0.29687  1.0000
  C   C7        1.0  0.84706  0.34273  0.79689  1.0000
  C   C8        1.0  0.65296  0.84273  0.70312  1.0000
  C   C9        1.0  0.20819  0.60302  0.10583  1.0000
  C   C10       1.0  0.29181  0.10300  0.39417  1.0000
  C   C11       1.0  0.79182  0.39699  0.89416  1.0000
  C   C12       1.0  0.70819  0.89698  0.60585  1.0000
  C   C13       1.0  0.93770  0.46759  0.45223  1.0000
  C   C14       1.0  0.56231  0.96758  0.04776  1.0000
  C   C15       1.0  0.06231  0.53242  0.54778  1.0000
  C   C16       1.0  0.43770  0.03242  0.95222  1.0000
  O   O1        1.0  0.42222  0.36300  0.53556  1.0000
  O   O2        1.0  0.07777  0.86300  0.96443  1.0000
  O   O3        1.0  0.57776  0.63702  0.46441  1.0000
  O   O4        1.0  0.92223  0.13703  0.03558  1.0000
  O   O5        1.0  0.63073  0.44876  0.62800  1.0000
  O   O6        1.0  0.86927  0.94876  0.87201  1.0000
  O   O7        1.0  0.36927  0.55122  0.37202  1.0000
  O   O8        1.0  0.13073  0.05124  0.12796  1.0000
  O   O9        1.0  0.09711  0.57942  0.25388  1.0000
  O   O10       1.0  0.40290  0.07943  0.24613  1.0000
  O   O11       1.0  0.90294  0.42058  0.74613  1.0000
  O   O12       1.0  0.59706  0.92058  0.75389  1.0000
  O   O13       1.0  0.17071  0.77544  0.22070  1.0000
  O   O14       1.0  0.32929  0.27544  0.27929  1.0000
  O   O15       1.0  0.82927  0.22457  0.77929  1.0000
  O   O16       1.0  0.67073  0.72455  0.72072  1.0000
  O   O17       1.0  0.28369  0.67049  0.06799  1.0000
  O   O18       1.0  0.21629  0.17049  0.43200  1.0000
  O   O19       1.0  0.71631  0.32951  0.93200  1.0000
  O   O20       1.0  0.78368  0.82951  0.56800  1.0000
  O   O21       1.0  0.17150  0.48763  0.06413  1.0000
  O   O22       1.0  0.32850  0.98762  0.43584  1.0000
  O   O23       1.0  0.82849  0.51239  0.93586  1.0000
  O   O24       1.0  0.67148  0.01237  0.56414  1.0000
  O   O25       1.0  0.96557  0.39677  0.37725  1.0000
  O   O26       1.0  0.53443  0.89675  0.12273  1.0000
  O   O27       1.0  0.03439  0.60321  0.62274  1.0000
  O   O28       1.0  0.46560  0.10323  0.87726  1.0000
  O   O29       1.0  0.81918  0.49116  0.45736  1.0000
  O   O30       1.0  0.68084  0.99116  0.04265  1.0000
  O   O31       1.0  0.18085  0.50886  0.54269  1.0000
  O   O32       1.0  0.31917  0.00885  0.95732  1.0000
  O   O33       1.0  0.02649  0.34165  0.16716  1.0000
  O   O34       1.0  0.47351  0.84164  0.33283  1.0000
  O   O35       1.0  0.97353  0.65834  0.83289  1.0000
  O   O36       1.0  0.52647  0.15833  0.66710  1.0000
