data_image0
_chemical_formula_structural       Nd4H12C16O36
_chemical_formula_sum              "Nd4 H12 C16 O36"
_cell_length_a       10.3521
_cell_length_b       10.6343
_cell_length_c       11.9507
_cell_angle_alpha    89.9993
_cell_angle_beta     109.042
_cell_angle_gamma    90.0009

_space_group_name_H-M_alt    "P 1"
_space_group_IT_number       1

loop_
  _space_group_symop_operation_xyz
  'x, y, z'

loop_
  _atom_site_type_symbol
  _atom_site_label
  _atom_site_symmetry_multiplicity
  _atom_site_fract_x
  _atom_site_fract_y
  _atom_site_fract_z
  _atom_site_occupancy
  Nd  Nd1       1.0  0.19730  0.39322  0.37556  1.0000
  Nd  Nd2       1.0  0.30269  0.89322  0.12445  1.0000
  Nd  Nd3       1.0  0.80271  0.60679  0.62445  1.0000
  Nd  Nd4       1.0  0.69727  0.10679  0.87555  1.0000
  H   H1        1.0  0.99319  0.25713  0.12265  1.0000
  H   H2        1.0  0.50680  0.75715  0.37736  1.0000
  H   H3        1.0  0.00681  0.74286  0.87736  1.0000
  H   H4        1.0  0.49320  0.24286  0.62264  1.0000
  H   H5        1.0  0.94486  0.38130  0.17122  1.0000
  H   H6        1.0  0.55513  0.88131  0.32878  1.0000
  H   H7        1.0  0.05516  0.61871  0.82878  1.0000
  H   H8        1.0  0.44487  0.11869  0.67120  1.0000
  H   H9        1.0  0.10964  0.44101  0.10197  1.0000
  H   H10       1.0  0.39035  0.94102  0.39803  1.0000
  H   H11       1.0  0.89038  0.55897  0.89803  1.0000
  H   H12       1.0  0.60967  0.05899  0.60197  1.0000
  C   C1        1.0  0.93785  0.46832  0.45227  1.0000
  C   C2        1.0  0.56213  0.96832  0.04774  1.0000
  C   C3        1.0  0.06217  0.53167  0.54774  1.0000
  C   C4        1.0  0.43783  0.03168  0.95226  1.0000
  C   C5        1.0  0.51655  0.44784  0.54776  1.0000
  C   C6        1.0  0.98346  0.94784  0.95225  1.0000
  C   C7        1.0  0.48349  0.55216  0.45224  1.0000
  C   C8        1.0  0.01651  0.05217  0.04776  1.0000
  C   C9        1.0  0.34822  0.15182  0.29801  1.0000
  C   C10       1.0  0.15176  0.65183  0.20200  1.0000
  C   C11       1.0  0.65177  0.84816  0.70200  1.0000
  C   C12       1.0  0.84823  0.34818  0.79801  1.0000
  C   C13       1.0  0.29518  0.09978  0.39714  1.0000
  C   C14       1.0  0.20481  0.59978  0.10286  1.0000
  C   C15       1.0  0.70484  0.90022  0.60286  1.0000
  C   C16       1.0  0.79519  0.40022  0.89714  1.0000
  O   O1        1.0  0.82005  0.49420  0.45601  1.0000
  O   O2        1.0  0.67996  0.99421  0.04398  1.0000
  O   O3        1.0  0.17997  0.50579  0.54400  1.0000
  O   O4        1.0  0.32001  0.00580  0.95601  1.0000
  O   O5        1.0  0.96525  0.39620  0.37865  1.0000
  O   O6        1.0  0.53475  0.89622  0.12135  1.0000
  O   O7        1.0  0.03478  0.60379  0.62137  1.0000
  O   O8        1.0  0.46522  0.10379  0.87864  1.0000
  O   O9        1.0  0.63012  0.45281  0.62894  1.0000
  O   O10       1.0  0.86987  0.95282  0.87105  1.0000
  O   O11       1.0  0.36991  0.54717  0.37105  1.0000
  O   O12       1.0  0.13009  0.04719  0.12894  1.0000
  O   O13       1.0  0.42619  0.36325  0.53641  1.0000
  O   O14       1.0  0.07379  0.86326  0.96359  1.0000
  O   O15       1.0  0.57383  0.63675  0.46359  1.0000
  O   O16       1.0  0.92615  0.13675  0.03642  1.0000
  O   O17       1.0  0.32995  0.26775  0.27890  1.0000
  O   O18       1.0  0.17003  0.76775  0.22109  1.0000
  O   O19       1.0  0.67009  0.73225  0.72111  1.0000
  O   O20       1.0  0.82994  0.23225  0.77889  1.0000
  O   O21       1.0  0.40309  0.07425  0.24752  1.0000
  O   O22       1.0  0.09689  0.57422  0.25248  1.0000
  O   O23       1.0  0.59688  0.92579  0.75246  1.0000
  O   O24       1.0  0.90312  0.42575  0.74753  1.0000
  O   O25       1.0  0.22172  0.16664  0.43647  1.0000
  O   O26       1.0  0.27827  0.66666  0.06353  1.0000
  O   O27       1.0  0.77829  0.83335  0.56353  1.0000
  O   O28       1.0  0.72173  0.33336  0.93646  1.0000
  O   O29       1.0  0.33156  0.98624  0.43870  1.0000
  O   O30       1.0  0.16843  0.48622  0.06130  1.0000
  O   O31       1.0  0.66845  0.01379  0.56130  1.0000
  O   O32       1.0  0.83159  0.51376  0.93870  1.0000
  O   O33       1.0  0.02637  0.33955  0.16471  1.0000
  O   O34       1.0  0.47363  0.83956  0.33530  1.0000
  O   O35       1.0  0.97365  0.66045  0.83530  1.0000
  O   O36       1.0  0.52637  0.16044  0.66470  1.0000
