data_image0
_chemical_formula_structural       Gd4H12C16O36
_chemical_formula_sum              "Gd4 H12 C16 O36"
_cell_length_a       10.7281
_cell_length_b       9.94724
_cell_length_c       12.1991
_cell_angle_alpha    89.9945
_cell_angle_beta     107.751
_cell_angle_gamma    90.003

_space_group_name_H-M_alt    "P 1"
_space_group_IT_number       1

loop_
  _space_group_symop_operation_xyz
  'x, y, z'

loop_
  _atom_site_type_symbol
  _atom_site_label
  _atom_site_symmetry_multiplicity
  _atom_site_fract_x
  _atom_site_fract_y
  _atom_site_fract_z
  _atom_site_occupancy
  Gd  Gd1       1.0  0.20463  0.57199  0.38513  1.0000
  Gd  Gd2       1.0  0.29531  0.07203  0.11480  1.0000
  Gd  Gd3       1.0  0.79523  0.42801  0.61480  1.0000
  Gd  Gd4       1.0  0.70481  0.92798  0.88528  1.0000
  H   H1        1.0  0.09189  0.75867  0.16144  1.0000
  H   H2        1.0  0.40797  0.25873  0.33855  1.0000
  H   H3        1.0  0.90813  0.24132  0.83853  1.0000
  H   H4        1.0  0.59203  0.74123  0.66148  1.0000
  H   H5        1.0  0.12813  0.55176  0.11390  1.0000
  H   H6        1.0  0.37160  0.05179  0.38602  1.0000
  H   H7        1.0  0.87194  0.44822  0.88608  1.0000
  H   H8        1.0  0.62837  0.94815  0.61402  1.0000
  H   H9        1.0  0.98104  0.66582  0.18211  1.0000
  H   H10       1.0  0.51883  0.16583  0.31798  1.0000
  H   H11       1.0  0.01892  0.33420  0.81779  1.0000
  H   H12       1.0  0.48124  0.83416  0.68214  1.0000
  C   C1        1.0  0.28720  0.87950  0.39314  1.0000
  C   C2        1.0  0.21262  0.37953  0.10677  1.0000
  C   C3        1.0  0.71273  0.12046  0.60683  1.0000
  C   C4        1.0  0.78747  0.62046  0.89326  1.0000
  C   C5        1.0  0.34544  0.81861  0.30168  1.0000
  C   C6        1.0  0.15444  0.31856  0.19826  1.0000
  C   C7        1.0  0.65456  0.18136  0.69834  1.0000
  C   C8        1.0  0.84557  0.68143  0.80172  1.0000
  C   C9        1.0  0.94688  0.53968  0.45283  1.0000
  C   C10       1.0  0.55308  0.03976  0.04712  1.0000
  C   C11       1.0  0.05296  0.46036  0.54710  1.0000
  C   C12       1.0  0.44705  0.96031  0.95293  1.0000
  C   C13       1.0  0.50467  0.55981  0.54158  1.0000
  C   C14       1.0  0.99533  0.05977  0.95836  1.0000
  C   C15       1.0  0.49518  0.44019  0.45839  1.0000
  C   C16       1.0  0.00480  0.94024  0.04165  1.0000
  O   O1        1.0  0.21242  0.80993  0.42936  1.0000
  O   O2        1.0  0.28741  0.31001  0.07056  1.0000
  O   O3        1.0  0.78745  0.19004  0.57057  1.0000
  O   O4        1.0  0.71274  0.68999  0.92954  1.0000
  O   O5        1.0  0.31933  0.00222  0.43020  1.0000
  O   O6        1.0  0.18041  0.50224  0.06970  1.0000
  O   O7        1.0  0.68058  0.99774  0.56978  1.0000
  O   O8        1.0  0.81969  0.49775  0.93032  1.0000
  O   O9        1.0  0.34224  0.69243  0.29570  1.0000
  O   O10       1.0  0.15762  0.19238  0.20420  1.0000
  O   O11       1.0  0.65771  0.30754  0.70429  1.0000
  O   O12       1.0  0.84245  0.80762  0.79584  1.0000
  O   O13       1.0  0.38693  0.89944  0.24114  1.0000
  O   O14       1.0  0.11300  0.39934  0.25886  1.0000
  O   O15       1.0  0.61315  0.10053  0.75893  1.0000
  O   O16       1.0  0.88689  0.60067  0.74103  1.0000
  O   O17       1.0  0.98558  0.59971  0.37766  1.0000
  O   O18       1.0  0.51434  0.09983  0.12224  1.0000
  O   O19       1.0  0.01427  0.40031  0.62226  1.0000
  O   O20       1.0  0.48580  0.90020  0.87783  1.0000
  O   O21       1.0  0.83147  0.53717  0.45933  1.0000
  O   O22       1.0  0.66849  0.03731  0.04063  1.0000
  O   O23       1.0  0.16837  0.46289  0.54061  1.0000
  O   O24       1.0  0.33164  0.96278  0.95941  1.0000
  O   O25       1.0  0.40107  0.62072  0.53826  1.0000
  O   O26       1.0  0.09895  0.12059  0.96159  1.0000
  O   O27       1.0  0.59879  0.37931  0.46173  1.0000
  O   O28       1.0  0.90117  0.87946  0.03846  1.0000
  O   O29       1.0  0.61898  0.58930  0.60754  1.0000
  O   O30       1.0  0.88102  0.08931  0.89244  1.0000
  O   O31       1.0  0.38088  0.41068  0.39243  1.0000
  O   O32       1.0  0.11911  0.91069  0.10756  1.0000
  O   O33       1.0  0.07399  0.66689  0.18800  1.0000
  O   O34       1.0  0.42585  0.16695  0.31197  1.0000
  O   O35       1.0  0.92598  0.33310  0.81193  1.0000
  O   O36       1.0  0.57421  0.83300  0.68811  1.0000
