data_image0
_chemical_formula_structural       Tb4H12C16O36
_chemical_formula_sum              "Tb4 H12 C16 O36"
_cell_length_a       10.6829
_cell_length_b       9.93999
_cell_length_c       12.1196
_cell_angle_alpha    90.0003
_cell_angle_beta     107.518
_cell_angle_gamma    89.9992

_space_group_name_H-M_alt    "P 1"
_space_group_IT_number       1

loop_
  _space_group_symop_operation_xyz
  'x, y, z'

loop_
  _atom_site_type_symbol
  _atom_site_label
  _atom_site_symmetry_multiplicity
  _atom_site_fract_x
  _atom_site_fract_y
  _atom_site_fract_z
  _atom_site_occupancy
  Tb  Tb1       1.0  0.29483  0.57164  0.61497  1.0000
  Tb  Tb2       1.0  0.20518  0.07164  0.88504  1.0000
  Tb  Tb3       1.0  0.70518  0.42837  0.38504  1.0000
  Tb  Tb4       1.0  0.79482  0.92835  0.11497  1.0000
  H   H1        1.0  0.40781  0.75844  0.83870  1.0000
  H   H2        1.0  0.09219  0.25845  0.66130  1.0000
  H   H3        1.0  0.59219  0.24156  0.16131  1.0000
  H   H4        1.0  0.90781  0.74156  0.33870  1.0000
  H   H5        1.0  0.36935  0.55161  0.88646  1.0000
  H   H6        1.0  0.13067  0.05165  0.61353  1.0000
  H   H7        1.0  0.63066  0.44836  0.11355  1.0000
  H   H8        1.0  0.86932  0.94838  0.38645  1.0000
  H   H9        1.0  0.51768  0.66406  0.81680  1.0000
  H   H10       1.0  0.98233  0.16406  0.68319  1.0000
  H   H11       1.0  0.48232  0.33594  0.18321  1.0000
  H   H12       1.0  0.01767  0.83595  0.31680  1.0000
  C   C1        1.0  0.21422  0.87857  0.60636  1.0000
  C   C2        1.0  0.28579  0.37856  0.89364  1.0000
  C   C3        1.0  0.78577  0.12144  0.39364  1.0000
  C   C4        1.0  0.71420  0.62143  0.10635  1.0000
  C   C5        1.0  0.00454  0.44024  0.54175  1.0000
  C   C6        1.0  0.49546  0.94024  0.95825  1.0000
  C   C7        1.0  0.99546  0.55976  0.45825  1.0000
  C   C8        1.0  0.50454  0.05976  0.04175  1.0000
  C   C9        1.0  0.44709  0.46023  0.45276  1.0000
  C   C10       1.0  0.05292  0.96021  0.04725  1.0000
  C   C11       1.0  0.55293  0.53977  0.54725  1.0000
  C   C12       1.0  0.94708  0.03977  0.95276  1.0000
  C   C13       1.0  0.15497  0.81831  0.69831  1.0000
  C   C14       1.0  0.34503  0.31829  0.80169  1.0000
  C   C15       1.0  0.84502  0.18170  0.30169  1.0000
  C   C16       1.0  0.65497  0.68170  0.19831  1.0000
  O   O1        1.0  0.28905  0.80809  0.57007  1.0000
  O   O2        1.0  0.21095  0.30809  0.92991  1.0000
  O   O3        1.0  0.71095  0.19192  0.42993  1.0000
  O   O4        1.0  0.78903  0.69190  0.07006  1.0000
  O   O5        1.0  0.18306  0.00149  0.56906  1.0000
  O   O6        1.0  0.31696  0.50147  0.93093  1.0000
  O   O7        1.0  0.81692  0.99852  0.43092  1.0000
  O   O8        1.0  0.68304  0.49851  0.06907  1.0000
  O   O9        1.0  0.11908  0.41080  0.60798  1.0000
  O   O10       1.0  0.38092  0.91079  0.89203  1.0000
  O   O11       1.0  0.88092  0.58920  0.39202  1.0000
  O   O12       1.0  0.61908  0.08920  0.10799  1.0000
  O   O13       1.0  0.90052  0.37928  0.53844  1.0000
  O   O14       1.0  0.59950  0.87928  0.96156  1.0000
  O   O15       1.0  0.09949  0.62073  0.46158  1.0000
  O   O16       1.0  0.40051  0.12072  0.03843  1.0000
  O   O17       1.0  0.33123  0.46252  0.45956  1.0000
  O   O18       1.0  0.16877  0.96251  0.04043  1.0000
  O   O19       1.0  0.66879  0.53748  0.54045  1.0000
  O   O20       1.0  0.83122  0.03748  0.95955  1.0000
  O   O21       1.0  0.48633  0.40026  0.37715  1.0000
  O   O22       1.0  0.01366  0.90025  0.12285  1.0000
  O   O23       1.0  0.51368  0.59973  0.62286  1.0000
  O   O24       1.0  0.98632  0.09974  0.87715  1.0000
  O   O25       1.0  0.11368  0.89950  0.75942  1.0000
  O   O26       1.0  0.38632  0.39947  0.74058  1.0000
  O   O27       1.0  0.88632  0.10052  0.24058  1.0000
  O   O28       1.0  0.61368  0.60052  0.25943  1.0000
  O   O29       1.0  0.15743  0.69198  0.70424  1.0000
  O   O30       1.0  0.34258  0.19196  0.79576  1.0000
  O   O31       1.0  0.84257  0.30803  0.29576  1.0000
  O   O32       1.0  0.65742  0.80803  0.20424  1.0000
  O   O33       1.0  0.42472  0.66605  0.81219  1.0000
  O   O34       1.0  0.07528  0.16606  0.68780  1.0000
  O   O35       1.0  0.57528  0.33395  0.18781  1.0000
  O   O36       1.0  0.92471  0.83395  0.31219  1.0000
