data_image0
_chemical_formula_structural       Dy4H12C16O36
_chemical_formula_sum              "Dy4 H12 C16 O36"
_cell_length_a       10.6556
_cell_length_b       9.93607
_cell_length_c       12.0005
_cell_angle_alpha    90.0009
_cell_angle_beta     107.432
_cell_angle_gamma    90.0005

_space_group_name_H-M_alt    "P 1"
_space_group_IT_number       1

loop_
  _space_group_symop_operation_xyz
  'x, y, z'

loop_
  _atom_site_type_symbol
  _atom_site_label
  _atom_site_symmetry_multiplicity
  _atom_site_fract_x
  _atom_site_fract_y
  _atom_site_fract_z
  _atom_site_occupancy
  Dy  Dy1       1.0  0.20578  0.57065  0.88522  1.0000
  Dy  Dy2       1.0  0.29423  0.07065  0.61479  1.0000
  Dy  Dy3       1.0  0.79420  0.42935  0.11477  1.0000
  Dy  Dy4       1.0  0.70581  0.92935  0.38523  1.0000
  H   H1        1.0  0.09254  0.75713  0.66106  1.0000
  H   H2        1.0  0.40745  0.25713  0.83895  1.0000
  H   H3        1.0  0.90746  0.24286  0.33894  1.0000
  H   H4        1.0  0.59255  0.74287  0.16106  1.0000
  H   H5        1.0  0.13161  0.55002  0.61216  1.0000
  H   H6        1.0  0.36840  0.05002  0.88785  1.0000
  H   H7        1.0  0.86842  0.44999  0.38784  1.0000
  H   H8        1.0  0.63155  0.94999  0.11215  1.0000
  H   H9        1.0  0.98340  0.66172  0.68412  1.0000
  H   H10       1.0  0.51660  0.16172  0.81589  1.0000
  H   H11       1.0  0.01659  0.33827  0.31586  1.0000
  H   H12       1.0  0.48341  0.83826  0.18415  1.0000
  C   C1        1.0  0.34487  0.81687  0.80145  1.0000
  C   C2        1.0  0.15513  0.31687  0.69856  1.0000
  C   C3        1.0  0.65511  0.18314  0.19856  1.0000
  C   C4        1.0  0.84487  0.68314  0.30143  1.0000
  C   C5        1.0  0.28494  0.87651  0.89424  1.0000
  C   C6        1.0  0.21507  0.37651  0.60577  1.0000
  C   C7        1.0  0.71501  0.12350  0.10575  1.0000
  C   C8        1.0  0.78497  0.62351  0.39424  1.0000
  C   C9        1.0  0.49546  0.44031  0.95777  1.0000
  C   C10       1.0  0.00454  0.94031  0.54221  1.0000
  C   C11       1.0  0.50451  0.55970  0.04220  1.0000
  C   C12       1.0  0.99550  0.05970  0.45779  1.0000
  C   C13       1.0  0.94718  0.53973  0.95222  1.0000
  C   C14       1.0  0.55283  0.03974  0.54778  1.0000
  C   C15       1.0  0.05280  0.46024  0.04776  1.0000
  C   C16       1.0  0.44721  0.96024  0.45225  1.0000
  O   O1        1.0  0.34302  0.69049  0.79547  1.0000
  O   O2        1.0  0.15698  0.19049  0.70453  1.0000
  O   O3        1.0  0.65695  0.30952  0.20453  1.0000
  O   O4        1.0  0.84303  0.80952  0.29545  1.0000
  O   O5        1.0  0.38599  0.89844  0.73981  1.0000
  O   O6        1.0  0.11401  0.39844  0.76020  1.0000
  O   O7        1.0  0.61402  0.10157  0.26022  1.0000
  O   O8        1.0  0.88598  0.60156  0.23979  1.0000
  O   O9        1.0  0.20981  0.80550  0.93036  1.0000
  O   O10       1.0  0.29021  0.30550  0.56966  1.0000
  O   O11       1.0  0.79014  0.19449  0.06962  1.0000
  O   O12       1.0  0.70984  0.69451  0.43037  1.0000
  O   O13       1.0  0.31577  0.99934  0.93241  1.0000
  O   O14       1.0  0.18424  0.49934  0.56760  1.0000
  O   O15       1.0  0.68415  0.00068  0.06757  1.0000
  O   O16       1.0  0.81582  0.50068  0.43242  1.0000
  O   O17       1.0  0.38053  0.41040  0.89159  1.0000
  O   O18       1.0  0.11947  0.91040  0.60841  1.0000
  O   O19       1.0  0.61945  0.58961  0.10839  1.0000
  O   O20       1.0  0.88057  0.08961  0.39161  1.0000
  O   O21       1.0  0.59981  0.37995  0.96050  1.0000
  O   O22       1.0  0.90019  0.87995  0.53948  1.0000
  O   O23       1.0  0.40017  0.62006  0.03947  1.0000
  O   O24       1.0  0.09985  0.12006  0.46051  1.0000
  O   O25       1.0  0.98706  0.59936  0.87598  1.0000
  O   O26       1.0  0.51295  0.09936  0.62403  1.0000
  O   O27       1.0  0.01292  0.40061  0.12400  1.0000
  O   O28       1.0  0.48709  0.90061  0.37601  1.0000
  O   O29       1.0  0.83096  0.53774  0.95888  1.0000
  O   O30       1.0  0.66904  0.03774  0.54112  1.0000
  O   O31       1.0  0.16901  0.46225  0.04110  1.0000
  O   O32       1.0  0.33099  0.96224  0.45890  1.0000
  O   O33       1.0  0.07611  0.66426  0.68713  1.0000
  O   O34       1.0  0.42389  0.16425  0.81288  1.0000
  O   O35       1.0  0.92388  0.33574  0.31286  1.0000
  O   O36       1.0  0.57611  0.83574  0.18714  1.0000
