data_image0
_chemical_formula_structural       Ho4H12C16O36
_chemical_formula_sum              "Ho4 H12 C16 O36"
_cell_length_a       10.5696
_cell_length_b       9.90824
_cell_length_c       12.0015
_cell_angle_alpha    90.0023
_cell_angle_beta     106.949
_cell_angle_gamma    89.9915

_space_group_name_H-M_alt    "P 1"
_space_group_IT_number       1

loop_
  _space_group_symop_operation_xyz
  'x, y, z'

loop_
  _atom_site_type_symbol
  _atom_site_label
  _atom_site_symmetry_multiplicity
  _atom_site_fract_x
  _atom_site_fract_y
  _atom_site_fract_z
  _atom_site_occupancy
  Ho  Ho1       1.0  0.20666  0.42686  0.88534  1.0000
  Ho  Ho2       1.0  0.29337  0.92683  0.61465  1.0000
  Ho  Ho3       1.0  0.79325  0.57314  0.11460  1.0000
  Ho  Ho4       1.0  0.70675  0.07316  0.38544  1.0000
  H   H1        1.0  0.09276  0.23998  0.66381  1.0000
  H   H2        1.0  0.40721  0.73995  0.83615  1.0000
  H   H3        1.0  0.90724  0.76004  0.33621  1.0000
  H   H4        1.0  0.59273  0.26009  0.16383  1.0000
  H   H5        1.0  0.98352  0.33598  0.68842  1.0000
  H   H6        1.0  0.51647  0.83587  0.81161  1.0000
  H   H7        1.0  0.01641  0.66404  0.31150  1.0000
  H   H8        1.0  0.48357  0.16409  0.18852  1.0000
  H   H9        1.0  0.13065  0.44726  0.61327  1.0000
  H   H10       1.0  0.36934  0.94724  0.88668  1.0000
  H   H11       1.0  0.86932  0.55277  0.38666  1.0000
  H   H12       1.0  0.63067  0.05281  0.11336  1.0000
  C   C1        1.0  0.34583  0.18071  0.80066  1.0000
  C   C2        1.0  0.15420  0.68072  0.69930  1.0000
  C   C3        1.0  0.65417  0.81931  0.19932  1.0000
  C   C4        1.0  0.84582  0.31928  0.30070  1.0000
  C   C5        1.0  0.49579  0.55892  0.95712  1.0000
  C   C6        1.0  0.00421  0.05891  0.54288  1.0000
  C   C7        1.0  0.50412  0.44109  0.04279  1.0000
  C   C8        1.0  0.99589  0.94108  0.45721  1.0000
  C   C9        1.0  0.28607  0.12124  0.89428  1.0000
  C   C10       1.0  0.21394  0.62122  0.60568  1.0000
  C   C11       1.0  0.71390  0.87878  0.10570  1.0000
  C   C12       1.0  0.78609  0.37877  0.39432  1.0000
  C   C13       1.0  0.94723  0.45890  0.95352  1.0000
  C   C14       1.0  0.55278  0.95886  0.54649  1.0000
  C   C15       1.0  0.05265  0.54108  0.04642  1.0000
  C   C16       1.0  0.44736  0.04108  0.45360  1.0000
  O   O1        1.0  0.34489  0.30753  0.79538  1.0000
  O   O2        1.0  0.15514  0.80754  0.70460  1.0000
  O   O3        1.0  0.65502  0.69248  0.20454  1.0000
  O   O4        1.0  0.84496  0.19245  0.29547  1.0000
  O   O5        1.0  0.38567  0.09889  0.73775  1.0000
  O   O6        1.0  0.11436  0.59893  0.76222  1.0000
  O   O7        1.0  0.61441  0.90113  0.26230  1.0000
  O   O8        1.0  0.88556  0.40108  0.23771  1.0000
  O   O9        1.0  0.38089  0.58650  0.88931  1.0000
  O   O10       1.0  0.11912  0.08647  0.61069  1.0000
  O   O11       1.0  0.61902  0.41352  0.11063  1.0000
  O   O12       1.0  0.88099  0.91350  0.38941  1.0000
  O   O13       1.0  0.60053  0.62050  0.96033  1.0000
  O   O14       1.0  0.89946  0.12051  0.53968  1.0000
  O   O15       1.0  0.39940  0.37950  0.03958  1.0000
  O   O16       1.0  0.10063  0.87949  0.46039  1.0000
  O   O17       1.0  0.31720  0.99817  0.93230  1.0000
  O   O18       1.0  0.18280  0.49817  0.56765  1.0000
  O   O19       1.0  0.68279  0.00189  0.06771  1.0000
  O   O20       1.0  0.81720  0.50186  0.43231  1.0000
  O   O21       1.0  0.21111  0.19281  0.93139  1.0000
  O   O22       1.0  0.28890  0.69276  0.56856  1.0000
  O   O23       1.0  0.78880  0.80721  0.06854  1.0000
  O   O24       1.0  0.71119  0.30724  0.43148  1.0000
  O   O25       1.0  0.83032  0.46122  0.96091  1.0000
  O   O26       1.0  0.66969  0.96118  0.53910  1.0000
  O   O27       1.0  0.16955  0.53874  0.03902  1.0000
  O   O28       1.0  0.33044  0.03871  0.46097  1.0000
  O   O29       1.0  0.98790  0.39696  0.87832  1.0000
  O   O30       1.0  0.51213  0.89690  0.62167  1.0000
  O   O31       1.0  0.01197  0.60304  0.12161  1.0000
  O   O32       1.0  0.48803  0.10308  0.37844  1.0000
  O   O33       1.0  0.07654  0.33331  0.68992  1.0000
  O   O34       1.0  0.42346  0.83322  0.81005  1.0000
  O   O35       1.0  0.92342  0.66674  0.31004  1.0000
  O   O36       1.0  0.57658  0.16677  0.19001  1.0000
