data_image0
_chemical_formula_structural       Cs2H26C14N4O14
_chemical_formula_sum              "Cs2 H26 C14 N4 O14"
_cell_length_a       4.96203
_cell_length_b       10.0909
_cell_length_c       12.4731
_cell_angle_alpha    90.0009
_cell_angle_beta     90.0004
_cell_angle_gamma    89.9995

_space_group_name_H-M_alt    "P 1"
_space_group_IT_number       1

loop_
  _space_group_symop_operation_xyz
  'x, y, z'

loop_
  _atom_site_type_symbol
  _atom_site_label
  _atom_site_symmetry_multiplicity
  _atom_site_fract_x
  _atom_site_fract_y
  _atom_site_fract_z
  _atom_site_occupancy
  Cs  Cs1       1.0  0.97670  0.15787  1.00000  1.0000
  Cs  Cs2       1.0  0.02329  0.65786  0.00000  1.0000
  H   H1        1.0  0.40704  0.26188  0.25330  1.0000
  H   H2        1.0  0.59298  0.76188  0.74670  1.0000
  H   H3        1.0  0.59298  0.76189  0.25330  1.0000
  H   H4        1.0  0.40700  0.26189  0.74670  1.0000
  H   H5        1.0  0.17178  0.14294  0.29970  1.0000
  H   H6        1.0  0.82822  0.64292  0.70030  1.0000
  H   H7        1.0  0.82823  0.64293  0.29970  1.0000
  H   H8        1.0  0.17176  0.14293  0.70030  1.0000
  H   H9        1.0  0.14212  0.10081  0.50000  1.0000
  H   H10       1.0  0.85789  0.60081  0.50000  1.0000
  H   H11       1.0  0.80267  0.32583  0.38564  1.0000
  H   H12       1.0  0.19733  0.82583  0.61437  1.0000
  H   H13       1.0  0.19733  0.82583  0.38563  1.0000
  H   H14       1.0  0.80266  0.32583  0.61437  1.0000
  H   H15       1.0  0.05151  0.40625  0.23783  1.0000
  H   H16       1.0  0.94849  0.90625  0.76217  1.0000
  H   H17       1.0  0.94850  0.90624  0.23783  1.0000
  H   H18       1.0  0.05150  0.40625  0.76217  1.0000
  H   H19       1.0  0.77333  0.40868  0.18064  1.0000
  H   H20       1.0  0.22667  0.90867  0.81935  1.0000
  H   H21       1.0  0.22667  0.90867  0.18065  1.0000
  H   H22       1.0  0.77333  0.40868  0.81936  1.0000
  H   H23       1.0  0.44111  0.40832  0.93740  1.0000
  H   H24       1.0  0.55890  0.90832  0.06260  1.0000
  H   H25       1.0  0.55889  0.90832  0.93740  1.0000
  H   H26       1.0  0.44111  0.40832  0.06260  1.0000
  C   C1        1.0  0.56107  0.06300  0.25522  1.0000
  C   C2        1.0  0.43893  0.56300  0.74478  1.0000
  C   C3        1.0  0.43894  0.56300  0.25521  1.0000
  C   C4        1.0  0.56107  0.06301  0.74478  1.0000
  C   C5        1.0  0.38409  0.17312  0.30292  1.0000
  C   C6        1.0  0.61591  0.67312  0.69708  1.0000
  C   C7        1.0  0.61592  0.67312  0.30292  1.0000
  C   C8        1.0  0.38408  0.17313  0.69708  1.0000
  C   C9        1.0  0.32286  0.16103  0.50001  1.0000
  C   C10       1.0  0.67715  0.66103  0.50001  1.0000
  C   C11       1.0  0.67063  0.28146  0.44510  1.0000
  C   C12       1.0  0.32937  0.78145  0.55491  1.0000
  C   C13       1.0  0.32938  0.78145  0.44510  1.0000
  C   C14       1.0  0.67063  0.28146  0.55491  1.0000
  N   N1        1.0  0.45178  0.20654  0.41297  1.0000
  N   N2        1.0  0.54824  0.70653  0.58702  1.0000
  N   N3        1.0  0.54823  0.70653  0.41297  1.0000
  N   N4        1.0  0.45176  0.20653  0.58702  1.0000
  O   O1        1.0  0.49118  0.03076  0.16026  1.0000
  O   O2        1.0  0.50881  0.53076  0.83974  1.0000
  O   O3        1.0  0.50883  0.53077  0.16026  1.0000
  O   O4        1.0  0.49117  0.03076  0.83974  1.0000
  O   O5        1.0  0.75074  0.01492  0.30980  1.0000
  O   O6        1.0  0.24925  0.51492  0.69020  1.0000
  O   O7        1.0  0.24926  0.51493  0.30979  1.0000
  O   O8        1.0  0.75074  0.01494  0.69021  1.0000
  O   O9        1.0  0.91476  0.34670  0.20421  1.0000
  O   O10       1.0  0.08524  0.84670  0.79579  1.0000
  O   O11       1.0  0.08525  0.84670  0.20421  1.0000
  O   O12       1.0  0.91475  0.34670  0.79579  1.0000
  O   O13       1.0  0.43957  0.34820  0.00000  1.0000
  O   O14       1.0  0.56044  0.84820  1.00000  1.0000
