data_image0
_chemical_formula_structural       Ni3P6H44C24O22
_chemical_formula_sum              "Ni3 P6 H44 C24 O22"
_cell_length_a       7.94217
_cell_length_b       10.1665
_cell_length_c       12.9923
_cell_angle_alpha    66.6714
_cell_angle_beta     85.5493
_cell_angle_gamma    72.7239

_space_group_name_H-M_alt    "P 1"
_space_group_IT_number       1

loop_
  _space_group_symop_operation_xyz
  'x, y, z'

loop_
  _atom_site_type_symbol
  _atom_site_label
  _atom_site_symmetry_multiplicity
  _atom_site_fract_x
  _atom_site_fract_y
  _atom_site_fract_z
  _atom_site_occupancy
  Ni  Ni1       1.0  0.99998  0.50002  0.49998  1.0000
  Ni  Ni2       1.0  0.52981  0.63590  0.39262  1.0000
  Ni  Ni3       1.0  0.46998  0.36419  0.60739  1.0000
  P   P1        1.0  0.44034  0.21507  0.88768  1.0000
  P   P2        1.0  0.55966  0.78499  0.11231  1.0000
  P   P3        1.0  0.09293  0.80780  0.31446  1.0000
  P   P4        1.0  0.90696  0.19220  0.68548  1.0000
  P   P5        1.0  0.34632  0.39277  0.36525  1.0000
  P   P6        1.0  0.65373  0.60714  0.63475  1.0000
  H   H1        1.0  0.58646  0.88679  0.28576  1.0000
  H   H2        1.0  0.41328  0.11331  0.71434  1.0000
  H   H3        1.0  0.75050  0.78510  0.36785  1.0000
  H   H4        1.0  0.24939  0.21481  0.63213  1.0000
  H   H5        1.0  0.84513  0.44594  0.36463  1.0000
  H   H6        1.0  0.15439  0.55434  0.63534  1.0000
  H   H7        1.0  0.77048  0.37838  0.48959  1.0000
  H   H8        1.0  0.22926  0.62189  0.51045  1.0000
  H   H9        1.0  0.35850  0.00827  0.94354  1.0000
  H   H10       1.0  0.64152  0.99176  0.05647  1.0000
  H   H11       1.0  0.22444  0.83595  0.14663  1.0000
  H   H12       1.0  0.77561  0.16420  0.85330  1.0000
  H   H13       1.0  0.42127  0.57063  0.22843  1.0000
  H   H14       1.0  0.57871  0.42936  0.77155  1.0000
  H   H15       1.0  0.34771  0.41036  0.95102  1.0000
  H   H16       1.0  0.65235  0.58963  0.04903  1.0000
  H   H17       1.0  0.16753  0.36289  0.92043  1.0000
  H   H18       1.0  0.83249  0.63718  0.07959  1.0000
  H   H19       1.0  0.07275  0.18375  0.96089  1.0000
  H   H20       1.0  0.92715  0.81644  0.03909  1.0000
  H   H21       1.0  0.89680  0.25263  0.03444  1.0000
  H   H22       1.0  0.10316  0.74720  0.96572  1.0000
  H   H23       1.0  0.98797  0.05817  0.07166  1.0000
  H   H24       1.0  0.01222  0.94176  0.92827  1.0000
  H   H25       1.0  0.88302  0.04511  0.22782  1.0000
  H   H26       1.0  0.11688  0.95507  0.77215  1.0000
  H   H27       1.0  0.94150  0.01194  0.36625  1.0000
  H   H28       1.0  0.05854  0.98804  0.63375  1.0000
  H   H29       1.0  0.26643  0.07592  0.49407  1.0000
  H   H30       1.0  0.73365  0.92407  0.50591  1.0000
  H   H31       1.0  0.20398  0.93253  0.47544  1.0000
  H   H32       1.0  0.79620  0.06735  0.52462  1.0000
  H   H33       1.0  0.04861  0.10964  0.45179  1.0000
  H   H34       1.0  0.95150  0.89026  0.54819  1.0000
  H   H35       1.0  0.59302  0.21259  0.33770  1.0000
  H   H36       1.0  0.40709  0.78729  0.66232  1.0000
  H   H37       1.0  0.46914  0.12770  0.44853  1.0000
  H   H38       1.0  0.53097  0.87219  0.55148  1.0000
  H   H39       1.0  0.64646  0.26844  0.18662  1.0000
  H   H40       1.0  0.35362  0.73152  0.81339  1.0000
  H   H41       1.0  0.49524  0.42563  0.08929  1.0000
  H   H42       1.0  0.50480  0.57430  0.91071  1.0000
  H   H43       1.0  0.60768  0.27017  0.05410  1.0000
  H   H44       1.0  0.39244  0.72977  0.94590  1.0000
  C   C1        1.0  0.28154  0.23146  0.08937  1.0000
  C   C2        1.0  0.71855  0.76847  0.91063  1.0000
  C   C3        1.0  0.14747  0.16073  0.12686  1.0000
  C   C4        1.0  0.85256  0.83927  0.87311  1.0000
  C   C5        1.0  0.12708  0.09408  0.24327  1.0000
  C   C6        1.0  0.87303  0.90586  0.75671  1.0000
  C   C7        1.0  0.22840  0.10957  0.32006  1.0000
  C   C8        1.0  0.77171  0.89035  0.67995  1.0000
  C   C9        1.0  0.36209  0.18053  0.28155  1.0000
  C   C10       1.0  0.63807  0.81931  0.71848  1.0000
  C   C11       1.0  0.39517  0.23470  0.16609  1.0000
  C   C12       1.0  0.60490  0.76523  0.83392  1.0000
  C   C13       1.0  0.29706  0.31531  0.96539  1.0000
  C   C14       1.0  0.70297  0.68470  0.03464  1.0000
  C   C15       1.0  0.02154  0.16346  0.04446  1.0000
  C   C16       1.0  0.97849  0.83652  0.95555  1.0000
  C   C17       1.0  0.99514  0.00593  0.28751  1.0000
  C   C18       1.0  0.00482  0.99411  0.71245  1.0000
  C   C19       1.0  0.18650  0.05360  0.44186  1.0000
  C   C20       1.0  0.81362  0.94632  0.55815  1.0000
  C   C21       1.0  0.45827  0.21019  0.36217  1.0000
  C   C22       1.0  0.54184  0.78971  0.63784  1.0000
  C   C23       1.0  0.54391  0.30283  0.12175  1.0000
  C   C24       1.0  0.45618  0.69711  0.87826  1.0000
  O   O1        1.0  0.61651  0.82037  0.36495  1.0000
  O   O2        1.0  0.38337  0.17959  0.63511  1.0000
  O   O3        1.0  0.62311  0.12884  0.94649  1.0000
  O   O4        1.0  0.37691  0.87127  0.05346  1.0000
  O   O5        1.0  0.79425  0.47091  0.42781  1.0000
  O   O6        1.0  0.20559  0.52929  0.57224  1.0000
  O   O7        1.0  0.34949  0.10426  0.87164  1.0000
  O   O8        1.0  0.65055  0.89579  0.12835  1.0000
  O   O9        1.0  0.44736  0.33678  0.77162  1.0000
  O   O10       1.0  0.55255  0.66331  0.22837  1.0000
  O   O11       1.0  0.95873  0.72225  0.36908  1.0000
  O   O12       1.0  0.04113  0.27774  0.63077  1.0000
  O   O13       1.0  0.12760  0.80189  0.19530  1.0000
  O   O14       1.0  0.87246  0.19816  0.80462  1.0000
  O   O15       1.0  0.26144  0.74566  0.39097  1.0000
  O   O16       1.0  0.73838  0.25437  0.60906  1.0000
  O   O17       1.0  0.16144  0.39645  0.40584  1.0000
  O   O18       1.0  0.83860  0.60346  0.59415  1.0000
  O   O19       1.0  0.46394  0.42945  0.43461  1.0000
  O   O20       1.0  0.53603  0.57052  0.56543  1.0000
  O   O21       1.0  0.34253  0.50471  0.23896  1.0000
  O   O22       1.0  0.65756  0.49521  0.76103  1.0000
