data_image0
_chemical_formula_structural       Mn3P6H44C24O22
_chemical_formula_sum              "Mn3 P6 H44 C24 O22"
_cell_length_a       8.26574
_cell_length_b       10.0403
_cell_length_c       13.1991
_cell_angle_alpha    66.6707
_cell_angle_beta     82.9429
_cell_angle_gamma    70.7348

_space_group_name_H-M_alt    "P 1"
_space_group_IT_number       1

loop_
  _space_group_symop_operation_xyz
  'x, y, z'

loop_
  _atom_site_type_symbol
  _atom_site_label
  _atom_site_symmetry_multiplicity
  _atom_site_fract_x
  _atom_site_fract_y
  _atom_site_fract_z
  _atom_site_occupancy
  Mn  Mn1       1.0  0.02297  0.15013  0.39205  1.0000
  Mn  Mn2       1.0  0.97672  0.85023  0.60790  1.0000
  Mn  Mn3       1.0  0.50004  0.99993  0.50014  1.0000
  P   P1        1.0  0.58952  0.31567  0.31080  1.0000
  P   P2        1.0  0.41036  0.68432  0.68926  1.0000
  P   P3        1.0  0.85698  0.88557  0.36526  1.0000
  P   P4        1.0  0.14305  0.11443  0.63477  1.0000
  P   P5        1.0  0.93672  0.71685  0.88828  1.0000
  P   P6        1.0  0.06326  0.28322  0.11170  1.0000
  H   H1        1.0  0.27681  0.86796  0.49104  1.0000
  H   H2        1.0  0.72326  0.13168  0.50876  1.0000
  H   H3        1.0  0.33915  0.92823  0.36508  1.0000
  H   H4        1.0  0.66131  0.07134  0.63489  1.0000
  H   H5        1.0  0.11019  0.39484  0.27041  1.0000
  H   H6        1.0  0.88986  0.60529  0.72951  1.0000
  H   H7        1.0  0.25584  0.29990  0.35951  1.0000
  H   H8        1.0  0.74412  0.70013  0.64047  1.0000
  H   H9        1.0  0.72477  0.33756  0.14651  1.0000
  H   H10       1.0  0.27531  0.66244  0.85355  1.0000
  H   H11       1.0  0.93463  0.06711  0.23305  1.0000
  H   H12       1.0  0.06552  0.93282  0.76703  1.0000
  H   H13       1.0  0.86608  0.50262  0.95063  1.0000
  H   H14       1.0  0.13390  0.49744  0.04928  1.0000
  H   H15       1.0  0.38542  0.55887  0.22975  1.0000
  H   H16       1.0  0.61456  0.44117  0.77023  1.0000
  H   H17       1.0  0.43708  0.52531  0.36468  1.0000
  H   H18       1.0  0.56287  0.47477  0.63529  1.0000
  H   H19       1.0  0.61318  0.47691  0.46171  1.0000
  H   H20       1.0  0.38677  0.52314  0.53828  1.0000
  H   H21       1.0  0.67041  0.62545  0.47537  1.0000
  H   H22       1.0  0.32952  0.37462  0.52459  1.0000
  H   H23       1.0  0.82832  0.45488  0.47658  1.0000
  H   H24       1.0  0.17161  0.54517  0.52342  1.0000
  H   H25       1.0  0.08743  0.68869  0.33223  1.0000
  H   H26       1.0  0.91255  0.31133  0.66778  1.0000
  H   H27       1.0  0.95193  0.61510  0.43869  1.0000
  H   H28       1.0  0.04810  0.38482  0.56131  1.0000
  H   H29       1.0  0.12601  0.77232  0.17827  1.0000
  H   H30       1.0  0.87400  0.22768  0.82173  1.0000
  H   H31       1.0  0.98126  0.93189  0.08346  1.0000
  H   H32       1.0  0.01874  0.06812  0.91655  1.0000
  H   H33       1.0  0.09519  0.77174  0.04838  1.0000
  H   H34       1.0  0.90481  0.22827  0.95162  1.0000
  H   H35       1.0  0.83877  0.91986  0.94877  1.0000
  H   H36       1.0  0.16121  0.08013  0.05124  1.0000
  H   H37       1.0  0.66790  0.86995  0.92191  1.0000
  H   H38       1.0  0.33210  0.13006  0.07811  1.0000
  H   H39       1.0  0.44877  0.60218  0.07987  1.0000
  H   H40       1.0  0.55123  0.39782  0.92011  1.0000
  H   H41       1.0  0.58912  0.66038  0.97364  1.0000
  H   H42       1.0  0.41087  0.33962  0.02634  1.0000
  H   H43       1.0  0.42768  0.79834  0.01059  1.0000
  H   H44       1.0  0.57232  0.20167  0.98939  1.0000
  C   C1        1.0  0.62150  0.60414  0.24156  1.0000
  C   C2        1.0  0.37851  0.39586  0.75842  1.0000
  C   C3        1.0  0.72633  0.60970  0.31550  1.0000
  C   C4        1.0  0.27366  0.39032  0.68449  1.0000
  C   C5        1.0  0.85458  0.68154  0.27489  1.0000
  C   C6        1.0  0.14541  0.31847  0.72512  1.0000
  C   C7        1.0  0.88472  0.74046  0.16078  1.0000
  C   C8        1.0  0.11526  0.25955  0.83922  1.0000
  C   C9        1.0  0.77370  0.74090  0.08743  1.0000
  C   C10       1.0  0.22630  0.25912  0.91257  1.0000
  C   C11       1.0  0.64110  0.67422  0.12639  1.0000
  C   C12       1.0  0.35890  0.32579  0.87359  1.0000
  C   C13       1.0  0.49291  0.51750  0.28683  1.0000
  C   C14       1.0  0.50706  0.48251  0.71316  1.0000
  C   C15       1.0  0.70681  0.53882  0.43850  1.0000
  C   C16       1.0  0.29314  0.46122  0.56149  1.0000
  C   C17       1.0  0.95280  0.69995  0.35521  1.0000
  C   C18       1.0  0.04719  0.30003  0.64481  1.0000
  C   C19       1.0  0.02956  0.80683  0.11527  1.0000
  C   C20       1.0  0.97043  0.19317  0.88473  1.0000
  C   C21       1.0  0.79193  0.82281  0.96497  1.0000
  C   C22       1.0  0.20806  0.17719  0.03504  1.0000
  C   C23       1.0  0.52124  0.68338  0.04445  1.0000
  C   C24       1.0  0.47877  0.31662  0.95553  1.0000
  O   O1        1.0  0.46002  0.23076  0.36740  1.0000
  O   O2        1.0  0.53984  0.76926  0.63260  1.0000
  O   O3        1.0  0.29529  0.95909  0.42703  1.0000
  O   O4        1.0  0.70495  0.04049  0.57289  1.0000
  O   O5        1.0  0.12674  0.33806  0.35055  1.0000
  O   O6        1.0  0.87323  0.66210  0.64938  1.0000
  O   O7        1.0  0.62429  0.31116  0.19188  1.0000
  O   O8        1.0  0.37585  0.68872  0.80823  1.0000
  O   O9        1.0  0.75394  0.25002  0.38133  1.0000
  O   O10       1.0  0.24581  0.74993  0.61891  1.0000
  O   O11       1.0  0.67566  0.89731  0.40686  1.0000
  O   O12       1.0  0.32435  0.10280  0.59316  1.0000
  O   O13       1.0  0.85721  0.00364  0.24280  1.0000
  O   O14       1.0  0.14297  0.99626  0.75723  1.0000
  O   O15       1.0  0.97195  0.91129  0.43595  1.0000
  O   O16       1.0  0.02810  0.08873  0.56407  1.0000
  O   O17       1.0  0.85454  0.59963  0.87868  1.0000
  O   O18       1.0  0.14546  0.40045  0.12128  1.0000
  O   O19       1.0  0.11469  0.63281  0.94222  1.0000
  O   O20       1.0  0.88528  0.36721  0.05776  1.0000
  O   O21       1.0  0.94114  0.83568  0.77167  1.0000
  O   O22       1.0  0.05877  0.16447  0.22835  1.0000
