data_image0
_chemical_formula_structural       Zn2H32C40N18O8
_chemical_formula_sum              "Zn2 H32 C40 N18 O8"
_cell_length_a       10.2327
_cell_length_b       10.9918
_cell_length_c       12.2602
_cell_angle_alpha    70.2427
_cell_angle_beta     77.5897
_cell_angle_gamma    80.9941

_space_group_name_H-M_alt    "P 1"
_space_group_IT_number       1

loop_
  _space_group_symop_operation_xyz
  'x, y, z'

loop_
  _atom_site_type_symbol
  _atom_site_label
  _atom_site_symmetry_multiplicity
  _atom_site_fract_x
  _atom_site_fract_y
  _atom_site_fract_z
  _atom_site_occupancy
  Zn  Zn1       1.0  0.49515  0.80806  0.43242  1.0000
  Zn  Zn2       1.0  0.50485  0.19194  0.56758  1.0000
  H   H1        1.0  0.74970  0.27230  0.11184  1.0000
  H   H2        1.0  0.25030  0.72770  0.88816  1.0000
  H   H3        1.0  0.65251  0.30838  0.23532  1.0000
  H   H4        1.0  0.34749  0.69162  0.76468  1.0000
  H   H5        1.0  0.62465  0.07663  0.36963  1.0000
  H   H6        1.0  0.37534  0.92337  0.63037  1.0000
  H   H7        1.0  0.42643  0.95877  0.15889  1.0000
  H   H8        1.0  0.57357  0.04124  0.84111  1.0000
  H   H9        1.0  0.31035  0.45749  0.27786  1.0000
  H   H10       1.0  0.68965  0.54251  0.72215  1.0000
  H   H11       1.0  0.43937  0.33232  0.30048  1.0000
  H   H12       1.0  0.56063  0.66768  0.69952  1.0000
  H   H13       1.0  0.32141  0.62023  0.38083  1.0000
  H   H14       1.0  0.67859  0.37977  0.61917  1.0000
  H   H15       1.0  0.74094  0.61978  0.32948  1.0000
  H   H16       1.0  0.25906  0.38021  0.67053  1.0000
  H   H17       1.0  0.70147  0.33805  0.81637  1.0000
  H   H18       1.0  0.29853  0.66195  0.18363  1.0000
  H   H19       1.0  0.70709  0.23472  0.95965  1.0000
  H   H20       1.0  0.29291  0.76528  0.04035  1.0000
  H   H21       1.0  0.95213  0.18849  0.98877  1.0000
  H   H22       1.0  0.04787  0.81150  0.01124  1.0000
  H   H23       1.0  0.07531  0.56095  0.80585  1.0000
  H   H24       1.0  0.92470  0.43904  0.19415  1.0000
  H   H25       1.0  0.00614  0.81165  0.39912  1.0000
  H   H26       1.0  0.99385  0.18836  0.60088  1.0000
  H   H27       1.0  0.71148  0.82908  0.70285  1.0000
  H   H28       1.0  0.28852  0.17092  0.29716  1.0000
  H   H29       1.0  0.89139  0.84408  0.80410  1.0000
  H   H30       1.0  0.10862  0.15591  0.19590  1.0000
  H   H31       1.0  0.13049  0.84380  0.70081  1.0000
  H   H32       1.0  0.86952  0.15619  0.29918  1.0000
  C   C1        1.0  0.56858  0.39606  0.07520  1.0000
  C   C2        1.0  0.43143  0.60394  0.92480  1.0000
  C   C3        1.0  0.46160  0.47059  0.12245  1.0000
  C   C4        1.0  0.53840  0.52941  0.87755  1.0000
  C   C5        1.0  0.60584  0.42381  0.95278  1.0000
  C   C6        1.0  0.39416  0.57619  0.04722  1.0000
  C   C7        1.0  0.64593  0.28674  0.15578  1.0000
  C   C8        1.0  0.35408  0.71326  0.84422  1.0000
  C   C9        1.0  0.58167  0.07039  0.29807  1.0000
  C   C10       1.0  0.41832  0.92961  0.70193  1.0000
  C   C11       1.0  0.48268  0.01461  0.18763  1.0000
  C   C12       1.0  0.51732  0.98539  0.81237  1.0000
  C   C13       1.0  0.41904  0.43593  0.25437  1.0000
  C   C14       1.0  0.58096  0.56407  0.74563  1.0000
  C   C15       1.0  0.42845  0.59547  0.35864  1.0000
  C   C16       1.0  0.57155  0.40453  0.64136  1.0000
  C   C17       1.0  0.64289  0.59307  0.33044  1.0000
  C   C18       1.0  0.35711  0.40692  0.66956  1.0000
  C   C19       1.0  0.71433  0.33586  0.90344  1.0000
  C   C20       1.0  0.28567  0.66414  0.09656  1.0000
  C   C21       1.0  0.95667  0.29069  0.93825  1.0000
  C   C22       1.0  0.04333  0.70931  0.06176  1.0000
  C   C23       1.0  0.01506  0.47883  0.84509  1.0000
  C   C24       1.0  0.98495  0.52116  0.15491  1.0000
  C   C25       1.0  0.08341  0.82657  0.54396  1.0000
  C   C26       1.0  0.91659  0.17344  0.45603  1.0000
  C   C27       1.0  0.98136  0.81853  0.48791  1.0000
  C   C28       1.0  0.01863  0.18148  0.51208  1.0000
  C   C29       1.0  0.84743  0.81909  0.54472  1.0000
  C   C30       1.0  0.15256  0.18092  0.45528  1.0000
  C   C31       1.0  0.81573  0.82864  0.65874  1.0000
  C   C32       1.0  0.18427  0.17136  0.34125  1.0000
  C   C33       1.0  0.91701  0.83753  0.71511  1.0000
  C   C34       1.0  0.08300  0.16247  0.28489  1.0000
  C   C35       1.0  0.05042  0.83647  0.65805  1.0000
  C   C36       1.0  0.94959  0.16353  0.34194  1.0000
  C   C37       1.0  0.22537  0.82215  0.48066  1.0000
  C   C38       1.0  0.77463  0.17786  0.51933  1.0000
  C   C39       1.0  0.74213  0.80835  0.48119  1.0000
  C   C40       1.0  0.25786  0.19166  0.51882  1.0000
  N   N1        1.0  0.51742  0.97425  0.29669  1.0000
  N   N2        1.0  0.48257  0.02575  0.70331  1.0000
  N   N3        1.0  0.58437  0.16399  0.19386  1.0000
  N   N4        1.0  0.41563  0.83601  0.80614  1.0000
  N   N5        1.0  0.52250  0.13008  0.12134  1.0000
  N   N6        1.0  0.47750  0.86992  0.87866  1.0000
  N   N7        1.0  0.52574  0.65045  0.37760  1.0000
  N   N8        1.0  0.47427  0.34954  0.62240  1.0000
  N   N9        1.0  0.48554  0.50981  0.30264  1.0000
  N   N10       1.0  0.51446  0.49019  0.69736  1.0000
  N   N11       1.0  0.62221  0.50669  0.28382  1.0000
  N   N12       1.0  0.37779  0.49330  0.71619  1.0000
  N   N13       1.0  0.06288  0.35824  0.90877  1.0000
  N   N14       1.0  0.93712  0.64175  0.09123  1.0000
  N   N15       1.0  0.85032  0.36762  0.89451  1.0000
  N   N16       1.0  0.14968  0.63238  0.10549  1.0000
  N   N17       1.0  0.88658  0.48931  0.83375  1.0000
  N   N18       1.0  0.11343  0.51069  0.16625  1.0000
  O   O1        1.0  0.31910  0.81655  0.54007  1.0000
  O   O2        1.0  0.68090  0.18345  0.45991  1.0000
  O   O3        1.0  0.25102  0.82091  0.37616  1.0000
  O   O4        1.0  0.74897  0.17911  0.62383  1.0000
  O   O5        1.0  0.77425  0.79409  0.38159  1.0000
  O   O6        1.0  0.22573  0.20592  0.61842  1.0000
  O   O7        1.0  0.61755  0.81520  0.53571  1.0000
  O   O8        1.0  0.38244  0.18481  0.46429  1.0000
