data_image0
_chemical_formula_structural       Er2H28C36N4O12
_chemical_formula_sum              "Er2 H28 C36 N4 O12"
_cell_length_a       7.33339
_cell_length_b       9.99552
_cell_length_c       12.8997
_cell_angle_alpha    112.661
_cell_angle_beta     91.6101
_cell_angle_gamma    97.4334

_space_group_name_H-M_alt    "P 1"
_space_group_IT_number       1

loop_
  _space_group_symop_operation_xyz
  'x, y, z'

loop_
  _atom_site_type_symbol
  _atom_site_label
  _atom_site_symmetry_multiplicity
  _atom_site_fract_x
  _atom_site_fract_y
  _atom_site_fract_z
  _atom_site_occupancy
  Er  Er1       1.0  0.71010  0.57298  0.68852  1.0000
  Er  Er2       1.0  0.28990  0.42702  0.31148  1.0000
  H   H1        1.0  0.25174  0.31836  0.68880  1.0000
  H   H2        1.0  0.74826  0.68163  0.31120  1.0000
  H   H3        1.0  0.30561  0.19358  0.55709  1.0000
  H   H4        1.0  0.69439  0.80642  0.44290  1.0000
  H   H5        1.0  0.98674  0.17541  0.47160  1.0000
  H   H6        1.0  0.01326  0.82459  0.52840  1.0000
  H   H7        1.0  0.97073  0.13247  0.59219  1.0000
  H   H8        1.0  0.02927  0.86753  0.40781  1.0000
  H   H9        1.0  0.49982  0.66759  0.05381  1.0000
  H   H10       1.0  0.50017  0.33241  0.94619  1.0000
  H   H11       1.0  0.32549  0.54162  0.95758  1.0000
  H   H12       1.0  0.67450  0.45838  0.04242  1.0000
  H   H13       1.0  0.38766  0.73527  0.60845  1.0000
  H   H14       1.0  0.61234  0.26474  0.39155  1.0000
  H   H15       1.0  0.32171  0.97624  0.61434  1.0000
  H   H16       1.0  0.67830  0.02376  0.38566  1.0000
  H   H17       1.0  0.55093  0.20483  0.72387  1.0000
  H   H18       1.0  0.44907  0.79517  0.27613  1.0000
  H   H19       1.0  0.84434  0.31508  0.84350  1.0000
  H   H20       1.0  0.15567  0.68492  0.15651  1.0000
  H   H21       1.0  0.13119  0.28378  0.93500  1.0000
  H   H22       1.0  0.86881  0.71622  0.06501  1.0000
  H   H23       1.0  0.32632  0.11913  0.97468  1.0000
  H   H24       1.0  0.67369  0.88087  0.02532  1.0000
  H   H25       1.0  0.37893  0.85951  0.93663  1.0000
  H   H26       1.0  0.62107  0.14049  0.06337  1.0000
  H   H27       1.0  0.13782  0.65237  0.82016  1.0000
  H   H28       1.0  0.86218  0.34763  0.17984  1.0000
  C   C1        1.0  0.28660  0.40467  0.56125  1.0000
  C   C2        1.0  0.71339  0.59533  0.43875  1.0000
  C   C3        1.0  0.22050  0.27998  0.59742  1.0000
  C   C4        1.0  0.77949  0.72002  0.40258  1.0000
  C   C5        1.0  0.01612  0.22113  0.56370  1.0000
  C   C6        1.0  0.98388  0.77887  0.43630  1.0000
  C   C7        1.0  0.89691  0.34001  0.61286  1.0000
  C   C8        1.0  0.10308  0.65998  0.38713  1.0000
  C   C9        1.0  0.57401  0.57048  0.88453  1.0000
  C   C10       1.0  0.42599  0.42952  0.11548  1.0000
  C   C11       1.0  0.47469  0.56031  0.98272  1.0000
  C   C12       1.0  0.52531  0.43970  0.01728  1.0000
  C   C13       1.0  0.48414  0.83506  0.65468  1.0000
  C   C14       1.0  0.51586  0.16494  0.34532  1.0000
  C   C15       1.0  0.44741  0.97185  0.65915  1.0000
  C   C16       1.0  0.55259  0.02815  0.34085  1.0000
  C   C17       1.0  0.57236  0.09643  0.71850  1.0000
  C   C18       1.0  0.42765  0.90358  0.28150  1.0000
  C   C19       1.0  0.73542  0.08301  0.77276  1.0000
  C   C20       1.0  0.26459  0.91699  0.22724  1.0000
  C   C21       1.0  0.87132  0.20715  0.83617  1.0000
  C   C22       1.0  0.12868  0.79285  0.16383  1.0000
  C   C23       1.0  0.02853  0.18929  0.88558  1.0000
  C   C24       1.0  0.97147  0.81072  0.11442  1.0000
  C   C25       1.0  0.06375  0.04677  0.87389  1.0000
  C   C26       1.0  0.93625  0.95324  0.12612  1.0000
  C   C27       1.0  0.22636  0.02436  0.92227  1.0000
  C   C28       1.0  0.77364  0.97565  0.07773  1.0000
  C   C29       1.0  0.25390  0.88336  0.90417  1.0000
  C   C30       1.0  0.74610  0.11664  0.09583  1.0000
  C   C31       1.0  0.11817  0.76536  0.83899  1.0000
  C   C32       1.0  0.88182  0.23464  0.16101  1.0000
  C   C33       1.0  0.93219  0.92119  0.81087  1.0000
  C   C34       1.0  0.06782  0.07881  0.18913  1.0000
  C   C35       1.0  0.76377  0.93995  0.76109  1.0000
  C   C36       1.0  0.23623  0.06005  0.23891  1.0000
  N   N1        1.0  0.63794  0.81883  0.70315  1.0000
  N   N2        1.0  0.36206  0.18117  0.29685  1.0000
  N   N3        1.0  0.96066  0.78262  0.79451  1.0000
  N   N4        1.0  0.03934  0.21738  0.20549  1.0000
  O   O1        1.0  0.41987  0.50174  0.62009  1.0000
  O   O2        1.0  0.58013  0.49826  0.37991  1.0000
  O   O3        1.0  0.20901  0.40420  0.47193  1.0000
  O   O4        1.0  0.79099  0.59580  0.52807  1.0000
  O   O5        1.0  0.97244  0.46535  0.68628  1.0000
  O   O6        1.0  0.02756  0.53465  0.31372  1.0000
  O   O7        1.0  0.72593  0.31681  0.58089  1.0000
  O   O8        1.0  0.27407  0.68318  0.41911  1.0000
  O   O9        1.0  0.64689  0.46201  0.82009  1.0000
  O   O10       1.0  0.35311  0.53799  0.17991  1.0000
  O   O11       1.0  0.58119  0.68725  0.86548  1.0000
  O   O12       1.0  0.41881  0.31275  0.13452  1.0000
