data_image0
_chemical_formula_structural       Yb2H28C36N4O12
_chemical_formula_sum              "Yb2 H28 C36 N4 O12"
_cell_length_a       7.30231
_cell_length_b       9.97901
_cell_length_c       12.8531
_cell_angle_alpha    112.493
_cell_angle_beta     91.3267
_cell_angle_gamma    97.7991

_space_group_name_H-M_alt    "P 1"
_space_group_IT_number       1

loop_
  _space_group_symop_operation_xyz
  'x, y, z'

loop_
  _atom_site_type_symbol
  _atom_site_label
  _atom_site_symmetry_multiplicity
  _atom_site_fract_x
  _atom_site_fract_y
  _atom_site_fract_z
  _atom_site_occupancy
  Yb  Yb1       1.0  0.70822  0.57422  0.68849  1.0000
  Yb  Yb2       1.0  0.29178  0.42578  0.31151  1.0000
  H   H1        1.0  0.24688  0.32035  0.69050  1.0000
  H   H2        1.0  0.75311  0.67965  0.30950  1.0000
  H   H3        1.0  0.30152  0.19457  0.55912  1.0000
  H   H4        1.0  0.69848  0.80543  0.44088  1.0000
  H   H5        1.0  0.98350  0.17785  0.47209  1.0000
  H   H6        1.0  0.01649  0.82215  0.52791  1.0000
  H   H7        1.0  0.96329  0.13462  0.59303  1.0000
  H   H8        1.0  0.03671  0.86538  0.40697  1.0000
  H   H9        1.0  0.50110  0.66777  0.05407  1.0000
  H   H10       1.0  0.49890  0.33223  0.94593  1.0000
  H   H11       1.0  0.32470  0.54202  0.95854  1.0000
  H   H12       1.0  0.67530  0.45798  0.04145  1.0000
  H   H13       1.0  0.38541  0.73379  0.60735  1.0000
  H   H14       1.0  0.61459  0.26621  0.39265  1.0000
  H   H15       1.0  0.31875  0.97509  0.61413  1.0000
  H   H16       1.0  0.68125  0.02492  0.38587  1.0000
  H   H17       1.0  0.54839  0.20439  0.72399  1.0000
  H   H18       1.0  0.45162  0.79561  0.27601  1.0000
  H   H19       1.0  0.84348  0.31548  0.84366  1.0000
  H   H20       1.0  0.15652  0.68452  0.15634  1.0000
  H   H21       1.0  0.13108  0.28446  0.93512  1.0000
  H   H22       1.0  0.86891  0.71554  0.06488  1.0000
  H   H23       1.0  0.32648  0.11966  0.97498  1.0000
  H   H24       1.0  0.67352  0.88034  0.02502  1.0000
  H   H25       1.0  0.37793  0.85986  0.93683  1.0000
  H   H26       1.0  0.62208  0.14014  0.06317  1.0000
  H   H27       1.0  0.13571  0.65231  0.82033  1.0000
  H   H28       1.0  0.86429  0.34769  0.17967  1.0000
  C   C1        1.0  0.28647  0.40556  0.56174  1.0000
  C   C2        1.0  0.71353  0.59444  0.43826  1.0000
  C   C3        1.0  0.21671  0.28143  0.59881  1.0000
  C   C4        1.0  0.78329  0.71857  0.40119  1.0000
  C   C5        1.0  0.01128  0.22330  0.56445  1.0000
  C   C6        1.0  0.98872  0.77670  0.43555  1.0000
  C   C7        1.0  0.89275  0.34289  0.61277  1.0000
  C   C8        1.0  0.10725  0.65711  0.38723  1.0000
  C   C9        1.0  0.57376  0.57105  0.88389  1.0000
  C   C10       1.0  0.42624  0.42895  0.11611  1.0000
  C   C11       1.0  0.47471  0.56053  0.98287  1.0000
  C   C12       1.0  0.52529  0.43947  0.01713  1.0000
  C   C13       1.0  0.48211  0.83398  0.65381  1.0000
  C   C14       1.0  0.51789  0.16603  0.34620  1.0000
  C   C15       1.0  0.44510  0.97096  0.65867  1.0000
  C   C16       1.0  0.55490  0.02904  0.34133  1.0000
  C   C17       1.0  0.57017  0.09597  0.71838  1.0000
  C   C18       1.0  0.42983  0.90403  0.28162  1.0000
  C   C19       1.0  0.73404  0.08291  0.77240  1.0000
  C   C20       1.0  0.26596  0.91709  0.22760  1.0000
  C   C21       1.0  0.87041  0.20741  0.83614  1.0000
  C   C22       1.0  0.12958  0.79259  0.16386  1.0000
  C   C23       1.0  0.02807  0.18969  0.88559  1.0000
  C   C24       1.0  0.97194  0.81031  0.11441  1.0000
  C   C25       1.0  0.06316  0.04709  0.87382  1.0000
  C   C26       1.0  0.93683  0.95291  0.12618  1.0000
  C   C27       1.0  0.22588  0.02478  0.92247  1.0000
  C   C28       1.0  0.77412  0.97522  0.07753  1.0000
  C   C29       1.0  0.25277  0.88362  0.90435  1.0000
  C   C30       1.0  0.74723  0.11638  0.09565  1.0000
  C   C31       1.0  0.11651  0.76536  0.83897  1.0000
  C   C32       1.0  0.88349  0.23464  0.16103  1.0000
  C   C33       1.0  0.93105  0.92125  0.81058  1.0000
  C   C34       1.0  0.06895  0.07875  0.18942  1.0000
  C   C35       1.0  0.76240  0.93978  0.76062  1.0000
  C   C36       1.0  0.23760  0.06023  0.23938  1.0000
  N   N1        1.0  0.63640  0.81803  0.70230  1.0000
  N   N2        1.0  0.36360  0.18197  0.29770  1.0000
  N   N3        1.0  0.95881  0.78245  0.79426  1.0000
  N   N4        1.0  0.04120  0.21755  0.20574  1.0000
  O   O1        1.0  0.41968  0.50310  0.62111  1.0000
  O   O2        1.0  0.58032  0.49690  0.37889  1.0000
  O   O3        1.0  0.21150  0.40392  0.47110  1.0000
  O   O4        1.0  0.78850  0.59608  0.52890  1.0000
  O   O5        1.0  0.96958  0.46913  0.68459  1.0000
  O   O6        1.0  0.03042  0.53087  0.31541  1.0000
  O   O7        1.0  0.72075  0.31955  0.58178  1.0000
  O   O8        1.0  0.27925  0.68044  0.41822  1.0000
  O   O9        1.0  0.64757  0.46325  0.81930  1.0000
  O   O10       1.0  0.35244  0.53675  0.18071  1.0000
  O   O11       1.0  0.57982  0.68754  0.86413  1.0000
  O   O12       1.0  0.42018  0.31246  0.13587  1.0000
