data_image0
_chemical_formula_structural       Cu4H40C28N12O12
_chemical_formula_sum              "Cu4 H40 C28 N12 O12"
_cell_length_a       6.60722
_cell_length_b       8.11393
_cell_length_c       18.2729
_cell_angle_alpha    89.9996
_cell_angle_beta     89.9994
_cell_angle_gamma    91.9491

_space_group_name_H-M_alt    "P 1"
_space_group_IT_number       1

loop_
  _space_group_symop_operation_xyz
  'x, y, z'

loop_
  _atom_site_type_symbol
  _atom_site_label
  _atom_site_symmetry_multiplicity
  _atom_site_fract_x
  _atom_site_fract_y
  _atom_site_fract_z
  _atom_site_occupancy
  Cu  Cu1       1.0  0.94095  0.22443  0.51170  1.0000
  Cu  Cu2       1.0  0.05905  0.27557  0.01170  1.0000
  Cu  Cu3       1.0  0.05905  0.77557  0.48830  1.0000
  Cu  Cu4       1.0  0.94095  0.72443  0.98830  1.0000
  H   H1        1.0  0.57946  0.10988  0.50480  1.0000
  H   H2        1.0  0.42055  0.39011  0.00480  1.0000
  H   H3        1.0  0.42053  0.89011  0.49520  1.0000
  H   H4        1.0  0.57946  0.60989  0.99520  1.0000
  H   H5        1.0  0.62659  0.26382  0.43145  1.0000
  H   H6        1.0  0.37341  0.23618  0.93145  1.0000
  H   H7        1.0  0.37340  0.73618  0.56855  1.0000
  H   H8        1.0  0.62659  0.76382  0.06855  1.0000
  H   H9        1.0  0.72794  0.47522  0.52525  1.0000
  H   H10       1.0  0.27204  0.02478  0.02525  1.0000
  H   H11       1.0  0.27205  0.52478  0.47475  1.0000
  H   H12       1.0  0.72795  0.97522  0.97475  1.0000
  H   H13       1.0  0.65342  0.19154  0.63697  1.0000
  H   H14       1.0  0.34656  0.30846  0.13697  1.0000
  H   H15       1.0  0.34658  0.80846  0.36303  1.0000
  H   H16       1.0  0.65343  0.69154  0.86303  1.0000
  H   H17       1.0  0.77061  0.38979  0.65489  1.0000
  H   H18       1.0  0.22938  0.11020  0.15489  1.0000
  H   H19       1.0  0.22939  0.61021  0.34510  1.0000
  H   H20       1.0  0.77063  0.88979  0.84511  1.0000
  H   H21       1.0  0.57175  0.59211  0.70353  1.0000
  H   H22       1.0  0.42825  0.90789  0.20353  1.0000
  H   H23       1.0  0.42826  0.40789  0.29647  1.0000
  H   H24       1.0  0.57176  0.09210  0.79646  1.0000
  H   H25       1.0  0.47638  0.42186  0.75668  1.0000
  H   H26       1.0  0.52361  0.07814  0.25668  1.0000
  H   H27       1.0  0.52361  0.57814  0.24331  1.0000
  H   H28       1.0  0.47640  0.92186  0.74332  1.0000
  H   H29       1.0  0.20136  0.65472  0.66860  1.0000
  H   H30       1.0  0.79864  0.84529  0.16861  1.0000
  H   H31       1.0  0.79865  0.34529  0.33139  1.0000
  H   H32       1.0  0.20137  0.15472  0.83139  1.0000
  H   H33       1.0  0.16869  0.48964  0.82046  1.0000
  H   H34       1.0  0.83130  0.01038  0.32045  1.0000
  H   H35       1.0  0.83133  0.51037  0.17955  1.0000
  H   H36       1.0  0.16869  0.98962  0.67955  1.0000
  H   H37       1.0  0.98683  0.62919  0.77686  1.0000
  H   H38       1.0  0.01316  0.87082  0.27686  1.0000
  H   H39       1.0  0.01318  0.37083  0.22314  1.0000
  H   H40       1.0  0.98684  0.12917  0.72314  1.0000
  C   C1        1.0  0.64504  0.22965  0.48870  1.0000
  C   C2        1.0  0.35496  0.27035  0.98870  1.0000
  C   C3        1.0  0.35496  0.77034  0.51130  1.0000
  C   C4        1.0  0.64504  0.72966  0.01130  1.0000
  C   C5        1.0  0.69694  0.34725  0.54162  1.0000
  C   C6        1.0  0.30305  0.15275  0.04162  1.0000
  C   C7        1.0  0.30305  0.65274  0.45838  1.0000
  C   C8        1.0  0.69695  0.84726  0.95838  1.0000
  C   C9        1.0  0.65612  0.32286  0.62194  1.0000
  C   C10       1.0  0.34386  0.17714  0.12194  1.0000
  C   C11       1.0  0.34387  0.67713  0.37806  1.0000
  C   C12       1.0  0.65613  0.82286  0.87806  1.0000
  C   C13       1.0  0.44727  0.49880  0.70862  1.0000
  C   C14       1.0  0.55273  0.00120  0.20862  1.0000
  C   C15       1.0  0.55274  0.50120  0.29138  1.0000
  C   C16       1.0  0.44728  0.99881  0.79138  1.0000
  C   C17       1.0  0.24782  0.57889  0.71473  1.0000
  C   C18       1.0  0.75219  0.92111  0.21473  1.0000
  C   C19       1.0  0.75219  0.42112  0.28527  1.0000
  C   C20       1.0  0.24781  0.07889  0.78527  1.0000
  C   C21       1.0  0.12811  0.56440  0.77337  1.0000
  C   C22       1.0  0.87188  0.93561  0.27336  1.0000
  C   C23       1.0  0.87190  0.43561  0.22663  1.0000
  C   C24       1.0  0.12811  0.06439  0.72664  1.0000
  C   C25       1.0  0.29737  0.34487  0.60684  1.0000
  C   C26       1.0  0.70263  0.15513  0.10684  1.0000
  C   C27       1.0  0.70264  0.65513  0.39316  1.0000
  C   C28       1.0  0.29738  0.84487  0.89316  1.0000
  N   N1        1.0  0.45953  0.39606  0.64173  1.0000
  N   N2        1.0  0.54046  0.10394  0.14173  1.0000
  N   N3        1.0  0.54047  0.60394  0.35827  1.0000
  N   N4        1.0  0.45954  0.89606  0.85827  1.0000
  N   N5        1.0  0.15897  0.29779  0.57132  1.0000
  N   N6        1.0  0.84102  0.20222  0.07132  1.0000
  N   N7        1.0  0.84103  0.70221  0.42868  1.0000
  N   N8        1.0  0.15898  0.79779  0.92868  1.0000
  N   N9        1.0  0.18829  0.16136  0.39269  1.0000
  N   N10       1.0  0.81171  0.33864  0.89269  1.0000
  N   N11       1.0  0.81172  0.83864  0.60731  1.0000
  N   N12       1.0  0.18828  0.66136  0.10731  1.0000
  O   O1        1.0  0.15870  0.31268  0.38664  1.0000
  O   O2        1.0  0.84129  0.18732  0.88664  1.0000
  O   O3        1.0  0.84130  0.68732  0.61336  1.0000
  O   O4        1.0  0.15870  0.81268  0.11336  1.0000
  O   O5        1.0  0.31577  0.08820  0.35537  1.0000
  O   O6        1.0  0.68424  0.41180  0.85537  1.0000
  O   O7        1.0  0.68424  0.91179  0.64463  1.0000
  O   O8        1.0  0.31574  0.58820  0.14464  1.0000
  O   O9        1.0  0.08014  0.07642  0.44038  1.0000
  O   O10       1.0  0.91985  0.42358  0.94038  1.0000
  O   O11       1.0  0.91985  0.92358  0.55962  1.0000
  O   O12       1.0  0.08015  0.57642  0.05962  1.0000
