data_image0
_chemical_formula_structural       Ag4H40C36Br4N8
_chemical_formula_sum              "Ag4 H40 C36 Br4 N8"
_cell_length_a       6.56283
_cell_length_b       8.86808
_cell_length_c       17.0023
_cell_angle_alpha    89.9937
_cell_angle_beta     90.001
_cell_angle_gamma    99.7263

_space_group_name_H-M_alt    "P 1"
_space_group_IT_number       1

loop_
  _space_group_symop_operation_xyz
  'x, y, z'

loop_
  _atom_site_type_symbol
  _atom_site_label
  _atom_site_symmetry_multiplicity
  _atom_site_fract_x
  _atom_site_fract_y
  _atom_site_fract_z
  _atom_site_occupancy
  Ag  Ag1       1.0  0.00192  0.50414  0.99934  1.0000
  Ag  Ag2       1.0  0.49809  0.49619  0.49960  1.0000
  Ag  Ag3       1.0  0.48318  0.50315  0.00033  1.0000
  Ag  Ag4       1.0  0.01510  0.49719  0.50020  1.0000
  H   H1        1.0  0.04614  0.57038  0.34942  1.0000
  H   H2        1.0  0.45368  0.42916  0.84970  1.0000
  H   H3        1.0  0.95167  0.43030  0.64936  1.0000
  H   H4        1.0  0.54835  0.56926  0.14963  1.0000
  H   H5        1.0  0.25070  0.06006  0.34462  1.0000
  H   H6        1.0  0.24916  0.93954  0.84457  1.0000
  H   H7        1.0  0.74862  0.94058  0.65765  1.0000
  H   H8        1.0  0.75131  0.05904  0.15753  1.0000
  H   H9        1.0  0.25537  0.06116  0.19752  1.0000
  H   H10       1.0  0.24456  0.93886  0.69746  1.0000
  H   H11       1.0  0.74627  0.94343  0.80472  1.0000
  H   H12       1.0  0.75376  0.05656  0.30459  1.0000
  H   H13       1.0  0.81923  0.36630  0.16555  1.0000
  H   H14       1.0  0.68105  0.63372  0.66588  1.0000
  H   H15       1.0  0.17927  0.64037  0.83378  1.0000
  H   H16       1.0  0.32083  0.35955  0.33420  1.0000
  H   H17       1.0  0.95310  0.38479  0.25783  1.0000
  H   H18       1.0  0.54734  0.61497  0.75817  1.0000
  H   H19       1.0  0.05447  0.61721  0.73980  1.0000
  H   H20       1.0  0.44542  0.38256  0.24017  1.0000
  H   H21       1.0  0.08128  0.33388  0.17133  1.0000
  H   H22       1.0  0.41913  0.66624  0.67176  1.0000
  H   H23       1.0  0.91729  0.67079  0.82343  1.0000
  H   H24       1.0  0.58287  0.32923  0.32381  1.0000
  H   H25       1.0  0.11356  0.82772  0.99464  1.0000
  H   H26       1.0  0.38636  0.17286  0.49474  1.0000
  H   H27       1.0  0.88959  0.18180  0.00587  1.0000
  H   H28       1.0  0.61070  0.81880  0.50594  1.0000
  H   H29       1.0  0.34198  0.92207  0.04275  1.0000
  H   H30       1.0  0.15813  0.07820  0.54290  1.0000
  H   H31       1.0  0.66125  0.08613  0.95815  1.0000
  H   H32       1.0  0.83870  0.91453  0.45802  1.0000
  H   H33       1.0  0.10210  0.98479  0.06036  1.0000
  H   H34       1.0  0.39822  0.01563  0.56035  1.0000
  H   H35       1.0  0.90152  0.02329  0.94119  1.0000
  H   H36       1.0  0.59817  0.97698  0.44110  1.0000
  H   H37       1.0  0.15191  0.81794  0.41882  1.0000
  H   H38       1.0  0.34793  0.18144  0.91894  1.0000
  H   H39       1.0  0.84546  0.18091  0.58168  1.0000
  H   H40       1.0  0.65447  0.81851  0.08175  1.0000
  C   C1        1.0  0.06448  0.62366  0.10417  1.0000
  C   C2        1.0  0.43566  0.37655  0.60439  1.0000
  C   C3        1.0  0.93849  0.38325  0.89496  1.0000
  C   C4        1.0  0.56150  0.61699  0.39519  1.0000
  C   C5        1.0  0.09215  0.67623  0.31645  1.0000
  C   C6        1.0  0.40787  0.32342  0.81665  1.0000
  C   C7        1.0  0.90738  0.32518  0.68305  1.0000
  C   C8        1.0  0.59262  0.67450  0.18322  1.0000
  C   C9        1.0  0.20840  0.95305  0.31242  1.0000
  C   C10       1.0  0.29156  0.04663  0.81244  1.0000
  C   C11       1.0  0.79189  0.04846  0.68905  1.0000
  C   C12       1.0  0.70811  0.95128  0.18903  1.0000
  C   C13       1.0  0.09295  0.67813  0.23446  1.0000
  C   C14       1.0  0.40711  0.32180  0.73466  1.0000
  C   C15       1.0  0.90838  0.32538  0.76505  1.0000
  C   C16       1.0  0.59162  0.67452  0.26522  1.0000
  C   C17       1.0  0.20986  0.95542  0.23046  1.0000
  C   C18       1.0  0.29012  0.04451  0.73048  1.0000
  C   C19       1.0  0.79161  0.04826  0.77102  1.0000
  C   C20       1.0  0.70840  0.95164  0.27101  1.0000
  C   C21       1.0  0.15108  0.81564  0.19235  1.0000
  C   C22       1.0  0.34914  0.18440  0.69248  1.0000
  C   C23       1.0  0.85134  0.18895  0.80810  1.0000
  C   C24       1.0  0.64865  0.81103  0.30817  1.0000
  C   C25       1.0  0.96965  0.40243  0.19421  1.0000
  C   C26       1.0  0.53068  0.59753  0.69454  1.0000
  C   C27       1.0  0.03188  0.60214  0.80335  1.0000
  C   C28       1.0  0.46816  0.39780  0.30372  1.0000
  C   C29       1.0  0.17482  0.88447  0.04895  1.0000
  C   C30       1.0  0.32530  0.11590  0.54903  1.0000
  C   C31       1.0  0.82840  0.12371  0.95188  1.0000
  C   C32       1.0  0.67157  0.87671  0.45186  1.0000
  C   C33       1.0  0.15084  0.81600  0.35461  1.0000
  C   C34       1.0  0.34904  0.18356  0.85473  1.0000
  C   C35       1.0  0.84808  0.18444  0.64587  1.0000
  C   C36       1.0  0.65192  0.81517  0.14594  1.0000
  Br  Br1       1.0  0.43339  0.27101  0.08373  1.0000
  Br  Br2       1.0  0.06660  0.72924  0.58362  1.0000
  Br  Br3       1.0  0.56142  0.73300  0.91594  1.0000
  Br  Br4       1.0  0.93844  0.26722  0.41586  1.0000
  N   N1        1.0  0.13071  0.77654  0.11321  1.0000
  N   N2        1.0  0.36941  0.22368  0.61337  1.0000
  N   N3        1.0  0.87220  0.23013  0.88695  1.0000
  N   N4        1.0  0.62778  0.77009  0.38704  1.0000
  N   N5        1.0  0.04302  0.56390  0.17817  1.0000
  N   N6        1.0  0.45720  0.43615  0.67842  1.0000
  N   N7        1.0  0.95934  0.44105  0.82056  1.0000
  N   N8        1.0  0.54062  0.55897  0.32082  1.0000
