data_image0
_chemical_formula_structural       K2CaZrH16C8O24
_chemical_formula_sum              "K2 Ca1 Zr1 H16 C8 O24"
_cell_length_a       8.77501
_cell_length_b       9.19694
_cell_length_c       9.19695
_cell_angle_alpha    76.8453
_cell_angle_beta     61.5059
_cell_angle_gamma    61.5055

_space_group_name_H-M_alt    "P 1"
_space_group_IT_number       1

loop_
  _space_group_symop_operation_xyz
  'x, y, z'

loop_
  _atom_site_type_symbol
  _atom_site_label
  _atom_site_symmetry_multiplicity
  _atom_site_fract_x
  _atom_site_fract_y
  _atom_site_fract_z
  _atom_site_occupancy
  K   K1        1.0  0.50000  1.00000  0.00000  1.0000
  K   K2        1.0  0.75000  0.50000  0.50000  1.0000
  Ca  Ca1       1.0  0.25000  0.50000  0.50000  1.0000
  Zr  Zr1       1.0  0.00001  1.00000  1.00000  1.0000
  H   H1        1.0  0.38168  0.84361  0.34634  1.0000
  H   H2        1.0  0.57161  0.15639  0.65367  1.0000
  H   H3        1.0  0.27199  0.34633  0.15639  1.0000
  H   H4        1.0  0.77472  0.65366  0.84361  1.0000
  H   H5        1.0  0.45361  0.92429  0.42172  1.0000
  H   H6        1.0  0.79963  0.07571  0.57828  1.0000
  H   H7        1.0  0.12467  0.42172  0.07571  1.0000
  H   H8        1.0  0.62210  0.57828  0.92429  1.0000
  H   H9        1.0  0.62952  0.92257  0.57545  1.0000
  H   H10       1.0  0.12753  0.07743  0.42455  1.0000
  H   H11       1.0  0.79503  0.57545  0.07743  1.0000
  H   H12       1.0  0.44791  0.42456  0.92257  1.0000
  H   H13       1.0  0.47373  0.85214  0.66205  1.0000
  H   H14       1.0  0.98792  0.14786  0.33795  1.0000
  H   H15       1.0  0.86421  0.66205  0.14786  1.0000
  H   H16       1.0  0.67413  0.33795  0.85214  1.0000
  C   C1        1.0  0.19862  0.78154  0.22448  1.0000
  C   C2        1.0  0.20463  0.21846  0.77552  1.0000
  C   C3        1.0  0.57691  0.22448  0.21846  1.0000
  C   C4        1.0  0.01986  0.77552  0.78154  1.0000
  C   C5        1.0  0.04398  0.72646  0.26172  1.0000
  C   C6        1.0  0.03217  0.27354  0.73828  1.0000
  C   C7        1.0  0.69429  0.26172  0.27353  1.0000
  C   C8        1.0  0.22955  0.73828  0.72647  1.0000
  O   O1        1.0  0.20652  0.89540  0.11536  1.0000
  O   O2        1.0  0.21728  0.10460  0.88464  1.0000
  O   O3        1.0  0.67813  0.11536  0.10460  1.0000
  O   O4        1.0  0.89808  0.88464  0.89540  1.0000
  O   O5        1.0  0.94229  0.80656  0.17916  1.0000
  O   O6        1.0  0.92801  0.19345  0.82084  1.0000
  O   O7        1.0  0.87855  0.17916  0.19344  1.0000
  O   O8        1.0  0.25115  0.82083  0.80655  1.0000
  O   O9        1.0  0.30115  0.71461  0.30125  1.0000
  O   O10       1.0  0.31701  0.28539  0.69875  1.0000
  O   O11       1.0  0.39760  0.30125  0.28539  1.0000
  O   O12       1.0  0.98423  0.69875  0.71461  1.0000
  O   O13       1.0  0.02783  0.61362  0.36285  1.0000
  O   O14       1.0  0.00429  0.38639  0.63715  1.0000
  O   O15       1.0  0.60932  0.36285  0.38639  1.0000
  O   O16       1.0  0.35857  0.63714  0.61361  1.0000
  O   O17       1.0  0.37901  0.94880  0.35794  1.0000
  O   O18       1.0  0.68575  0.05121  0.64206  1.0000
  O   O19       1.0  0.26305  0.35794  0.05121  1.0000
  O   O20       1.0  0.67219  0.64206  0.94880  1.0000
  O   O21       1.0  0.57456  0.86098  0.55428  1.0000
  O   O22       1.0  0.98982  0.13903  0.44571  1.0000
  O   O23       1.0  0.87114  0.55429  0.13903  1.0000
  O   O24       1.0  0.56446  0.44572  0.86098  1.0000
