data_image0
_chemical_formula_structural       H32Pb4C28S4O20
_chemical_formula_sum              "H32 Pb4 C28 S4 O20"
_cell_length_a       8.28586
_cell_length_b       8.7997
_cell_length_c       13.307
_cell_angle_alpha    105.232
_cell_angle_beta     90.0002
_cell_angle_gamma    90.0001

_space_group_name_H-M_alt    "P 1"
_space_group_IT_number       1

loop_
  _space_group_symop_operation_xyz
  'x, y, z'

loop_
  _atom_site_type_symbol
  _atom_site_label
  _atom_site_symmetry_multiplicity
  _atom_site_fract_x
  _atom_site_fract_y
  _atom_site_fract_z
  _atom_site_occupancy
  H   H1        1.0  0.51126  0.37479  0.33940  1.0000
  H   H2        1.0  0.01126  0.12522  0.66060  1.0000
  H   H3        1.0  0.48874  0.62521  0.66060  1.0000
  H   H4        1.0  0.98874  0.87479  0.33940  1.0000
  H   H5        1.0  0.51382  0.22630  0.39295  1.0000
  H   H6        1.0  0.01382  0.27370  0.60705  1.0000
  H   H7        1.0  0.48618  0.77370  0.60705  1.0000
  H   H8        1.0  0.98618  0.72630  0.39295  1.0000
  H   H9        1.0  0.94707  0.08725  0.10996  1.0000
  H   H10       1.0  0.44706  0.41274  0.89003  1.0000
  H   H11       1.0  0.05293  0.91274  0.89003  1.0000
  H   H12       1.0  0.55294  0.58725  0.10997  1.0000
  H   H13       1.0  0.85639  0.53426  0.04680  1.0000
  H   H14       1.0  0.35639  0.96574  0.95320  1.0000
  H   H15       1.0  0.14360  0.46574  0.95320  1.0000
  H   H16       1.0  0.64361  0.03426  0.04680  1.0000
  H   H17       1.0  0.89986  0.66798  0.23006  1.0000
  H   H18       1.0  0.39987  0.83201  0.76995  1.0000
  H   H19       1.0  0.10014  0.33201  0.76995  1.0000
  H   H20       1.0  0.60014  0.16799  0.23005  1.0000
  H   H21       1.0  0.80270  0.11236  0.93704  1.0000
  H   H22       1.0  0.30270  0.38764  0.06296  1.0000
  H   H23       1.0  0.19729  0.88764  0.06296  1.0000
  H   H24       1.0  0.69730  0.61236  0.93704  1.0000
  H   H25       1.0  0.99185  0.18283  0.90926  1.0000
  H   H26       1.0  0.49185  0.31717  0.09074  1.0000
  H   H27       1.0  0.00815  0.81718  0.09074  1.0000
  H   H28       1.0  0.50815  0.68283  0.90926  1.0000
  H   H29       1.0  0.81684  0.29708  0.90781  1.0000
  H   H30       1.0  0.31684  0.20292  0.09219  1.0000
  H   H31       1.0  0.18315  0.70292  0.09220  1.0000
  H   H32       1.0  0.68316  0.79708  0.90781  1.0000
  Pb  Pb1       1.0  0.76203  0.49992  0.51055  1.0000
  Pb  Pb2       1.0  0.26204  0.00008  0.48945  1.0000
  Pb  Pb3       1.0  0.23796  0.50008  0.48945  1.0000
  Pb  Pb4       1.0  0.73796  0.99992  0.51055  1.0000
  C   C1        1.0  0.96383  0.29124  0.23934  1.0000
  C   C2        1.0  0.46383  0.20876  0.76066  1.0000
  C   C3        1.0  0.03617  0.70876  0.76067  1.0000
  C   C4        1.0  0.53618  0.79124  0.23933  1.0000
  C   C5        1.0  0.93866  0.21520  0.13412  1.0000
  C   C6        1.0  0.43866  0.28480  0.86588  1.0000
  C   C7        1.0  0.06134  0.78480  0.86588  1.0000
  C   C8        1.0  0.56134  0.71520  0.13412  1.0000
  C   C9        1.0  0.90060  0.30015  0.06220  1.0000
  C   C10       1.0  0.40060  0.19985  0.93780  1.0000
  C   C11       1.0  0.09940  0.69985  0.93780  1.0000
  C   C12       1.0  0.59940  0.80016  0.06220  1.0000
  C   C13       1.0  0.88827  0.46412  0.10032  1.0000
  C   C14       1.0  0.38827  0.03588  0.89968  1.0000
  C   C15       1.0  0.11173  0.53588  0.89968  1.0000
  C   C16       1.0  0.61173  0.96412  0.10032  1.0000
  C   C17       1.0  0.91484  0.54082  0.20442  1.0000
  C   C18       1.0  0.41485  0.95918  0.79558  1.0000
  C   C19       1.0  0.08515  0.45918  0.79558  1.0000
  C   C20       1.0  0.58516  0.04082  0.20442  1.0000
  C   C21       1.0  0.95469  0.45761  0.27810  1.0000
  C   C22       1.0  0.45469  0.04239  0.72190  1.0000
  C   C23       1.0  0.04532  0.54239  0.72190  1.0000
  C   C24       1.0  0.54531  0.95761  0.27810  1.0000
  C   C25       1.0  0.87632  0.21945  0.94882  1.0000
  C   C26       1.0  0.37631  0.28055  0.05118  1.0000
  C   C27       1.0  0.12368  0.78055  0.05118  1.0000
  C   C28       1.0  0.62368  0.71945  0.94882  1.0000
  S   S1        1.0  0.99371  0.17237  0.32537  1.0000
  S   S2        1.0  0.49372  0.32763  0.67463  1.0000
  S   S3        1.0  0.00629  0.82763  0.67463  1.0000
  S   S4        1.0  0.50628  0.67237  0.32537  1.0000
  O   O1        1.0  0.15185  0.21529  0.37933  1.0000
  O   O2        1.0  0.65186  0.28471  0.62067  1.0000
  O   O3        1.0  0.84815  0.78471  0.62067  1.0000
  O   O4        1.0  0.34814  0.71529  0.37932  1.0000
  O   O5        1.0  0.50949  0.34510  0.40631  1.0000
  O   O6        1.0  0.00949  0.15490  0.59369  1.0000
  O   O7        1.0  0.49051  0.65490  0.59369  1.0000
  O   O8        1.0  0.99051  0.84510  0.40631  1.0000
  O   O9        1.0  0.85843  0.20761  0.40186  1.0000
  O   O10       1.0  0.35843  0.29238  0.59814  1.0000
  O   O11       1.0  0.14158  0.79239  0.59814  1.0000
  O   O12       1.0  0.64157  0.70762  0.40186  1.0000
  O   O13       1.0  0.99290  0.00802  0.26360  1.0000
  O   O14       1.0  0.49291  0.49198  0.73640  1.0000
  O   O15       1.0  0.00710  0.99198  0.73640  1.0000
  O   O16       1.0  0.50710  0.50802  0.26360  1.0000
  O   O17       1.0  0.97850  0.53300  0.37923  1.0000
  O   O18       1.0  0.47850  0.96700  0.62077  1.0000
  O   O19       1.0  0.02151  0.46700  0.62078  1.0000
  O   O20       1.0  0.52150  0.03300  0.37923  1.0000
