data_image0
_chemical_formula_structural       H16Pb2C14S2O16
_chemical_formula_sum              "H16 Pb2 C14 S2 O16"
_cell_length_a       7.41594
_cell_length_b       8.68104
_cell_length_c       9.95084
_cell_angle_alpha    72.9611
_cell_angle_beta     77.8137
_cell_angle_gamma    79.2712

_space_group_name_H-M_alt    "P 1"
_space_group_IT_number       1

loop_
  _space_group_symop_operation_xyz
  'x, y, z'

loop_
  _atom_site_type_symbol
  _atom_site_label
  _atom_site_symmetry_multiplicity
  _atom_site_fract_x
  _atom_site_fract_y
  _atom_site_fract_z
  _atom_site_occupancy
  H   H1        1.0  0.61282  0.65302  0.10596  1.0000
  H   H2        1.0  0.38720  0.34696  0.89406  1.0000
  H   H3        1.0  0.49027  0.51363  0.19438  1.0000
  H   H4        1.0  0.50973  0.48637  0.80563  1.0000
  H   H5        1.0  0.00777  0.67247  0.95764  1.0000
  H   H6        1.0  0.99222  0.32753  0.04237  1.0000
  H   H7        1.0  0.07876  0.55220  0.09920  1.0000
  H   H8        1.0  0.92123  0.44780  0.90080  1.0000
  H   H9        1.0  0.48478  0.21899  0.73686  1.0000
  H   H10       1.0  0.51521  0.78100  0.26315  1.0000
  H   H11       1.0  0.55055  0.28727  0.48970  1.0000
  H   H12       1.0  0.44946  0.71272  0.51030  1.0000
  H   H13       1.0  0.74709  0.20644  0.28084  1.0000
  H   H14       1.0  0.25290  0.79358  0.71915  1.0000
  H   H15       1.0  0.91320  0.73603  0.55041  1.0000
  H   H16       1.0  0.08680  0.26397  0.44957  1.0000
  Pb  Pb1       1.0  0.25325  0.86659  0.03754  1.0000
  Pb  Pb2       1.0  0.74674  0.13341  0.96247  1.0000
  C   C1        1.0  0.71782  0.89961  0.65457  1.0000
  C   C2        1.0  0.28217  0.10039  0.34542  1.0000
  C   C3        1.0  0.61477  0.05619  0.63787  1.0000
  C   C4        1.0  0.38523  0.94382  0.36213  1.0000
  C   C5        1.0  0.62844  0.16568  0.50205  1.0000
  C   C6        1.0  0.37156  0.83432  0.49795  1.0000
  C   C7        1.0  0.73818  0.11997  0.38545  1.0000
  C   C8        1.0  0.26180  0.88006  0.61455  1.0000
  C   C9        1.0  0.83955  0.96380  0.40142  1.0000
  C   C10       1.0  0.16045  0.03621  0.59858  1.0000
  C   C11       1.0  0.82978  0.85513  0.53683  1.0000
  C   C12       1.0  0.17021  0.14488  0.46316  1.0000
  C   C13       1.0  0.96522  0.91685  0.27835  1.0000
  C   C14       1.0  0.03476  0.08316  0.72165  1.0000
  S   S1        1.0  0.70668  0.75114  0.82114  1.0000
  S   S2        1.0  0.29331  0.24886  0.17884  1.0000
  O   O1        1.0  0.54689  0.66495  0.83594  1.0000
  O   O2        1.0  0.45311  0.33504  0.16406  1.0000
  O   O3        1.0  0.51939  0.62165  0.19138  1.0000
  O   O4        1.0  0.48065  0.37833  0.80865  1.0000
  O   O5        1.0  0.88803  0.64605  0.81401  1.0000
  O   O6        1.0  0.11196  0.35394  0.18599  1.0000
  O   O7        1.0  0.05438  0.66766  0.04452  1.0000
  O   O8        1.0  0.94562  0.33234  0.95548  1.0000
  O   O9        1.0  0.67829  0.83247  0.93673  1.0000
  O   O10       1.0  0.32172  0.16753  0.06325  1.0000
  O   O11       1.0  0.50623  0.09858  0.75269  1.0000
  O   O12       1.0  0.49377  0.90142  0.24731  1.0000
  O   O13       1.0  0.08581  0.79175  0.29762  1.0000
  O   O14       1.0  0.91421  0.20827  0.70237  1.0000
  O   O15       1.0  0.95576  0.01166  0.15124  1.0000
  O   O16       1.0  0.04427  0.98834  0.84876  1.0000
