data_image0
_chemical_formula_structural       H32Pb2C28S4O34
_chemical_formula_sum              "H32 Pb2 C28 S4 O34"
_cell_length_a       6.81212
_cell_length_b       11.793
_cell_length_c       14.2385
_cell_angle_alpha    109.846
_cell_angle_beta     101.516
_cell_angle_gamma    97.7085

_space_group_name_H-M_alt    "P 1"
_space_group_IT_number       1

loop_
  _space_group_symop_operation_xyz
  'x, y, z'

loop_
  _atom_site_type_symbol
  _atom_site_label
  _atom_site_symmetry_multiplicity
  _atom_site_fract_x
  _atom_site_fract_y
  _atom_site_fract_z
  _atom_site_occupancy
  H   H1        1.0  0.34318  0.42534  0.56427  1.0000
  H   H2        1.0  0.65684  0.57465  0.43573  1.0000
  H   H3        1.0  0.57780  0.43806  0.56082  1.0000
  H   H4        1.0  0.42221  0.56194  0.43918  1.0000
  H   H5        1.0  0.74707  0.98513  0.89224  1.0000
  H   H6        1.0  0.25292  0.01487  0.10775  1.0000
  H   H7        1.0  0.92245  0.90214  0.88047  1.0000
  H   H8        1.0  0.07755  0.09786  0.11953  1.0000
  H   H9        1.0  0.97681  0.71055  0.76587  1.0000
  H   H10       1.0  0.02318  0.28944  0.23412  1.0000
  H   H11       1.0  0.90722  0.67353  0.64177  1.0000
  H   H12       1.0  0.09278  0.32647  0.35822  1.0000
  H   H13       1.0  0.28437  0.93412  0.76615  1.0000
  H   H14       1.0  0.71563  0.06587  0.23384  1.0000
  H   H15       1.0  0.16469  0.01463  0.23287  1.0000
  H   H16       1.0  0.83531  0.98537  0.76714  1.0000
  H   H17       1.0  0.37500  0.21775  0.52516  1.0000
  H   H18       1.0  0.62502  0.78227  0.47485  1.0000
  H   H19       1.0  0.22911  0.29746  0.01739  1.0000
  H   H20       1.0  0.77086  0.70254  0.98262  1.0000
  H   H21       1.0  0.42886  0.57420  0.29257  1.0000
  H   H22       1.0  0.57115  0.42579  0.70743  1.0000
  H   H23       1.0  0.11073  0.49832  0.71146  1.0000
  H   H24       1.0  0.88927  0.50167  0.28853  1.0000
  H   H25       1.0  0.12569  0.81498  0.35924  1.0000
  H   H26       1.0  0.87432  0.18502  0.64076  1.0000
  H   H27       1.0  0.35853  0.10603  0.72744  1.0000
  H   H28       1.0  0.64148  0.89397  0.27256  1.0000
  H   H29       1.0  0.15021  0.35307  0.78500  1.0000
  H   H30       1.0  0.84975  0.64692  0.21500  1.0000
  H   H31       1.0  0.33628  0.71213  0.12013  1.0000
  H   H32       1.0  0.66369  0.28786  0.87986  1.0000
  Pb  Pb1       1.0  0.53484  0.70675  0.72475  1.0000
  Pb  Pb2       1.0  0.46516  0.29329  0.27528  1.0000
  C   C1        1.0  0.24078  0.91590  0.62220  1.0000
  C   C2        1.0  0.75924  0.08410  0.37780  1.0000
  C   C3        1.0  0.17408  0.83295  0.51737  1.0000
  C   C4        1.0  0.82594  0.16705  0.48264  1.0000
  C   C5        1.0  0.17431  0.87874  0.43961  1.0000
  C   C6        1.0  0.82570  0.12126  0.56038  1.0000
  C   C7        1.0  0.24095  0.00467  0.46249  1.0000
  C   C8        1.0  0.75908  0.99534  0.53751  1.0000
  C   C9        1.0  0.30948  0.08687  0.56781  1.0000
  C   C10       1.0  0.69054  0.91313  0.43219  1.0000
  C   C11       1.0  0.30681  0.04173  0.64689  1.0000
  C   C12       1.0  0.69321  0.95827  0.35310  1.0000
  C   C13       1.0  0.24549  0.05199  0.38016  1.0000
  C   C14       1.0  0.75453  0.94803  0.61985  1.0000
  C   C15       1.0  0.26850  0.65425  0.95541  1.0000
  C   C16       1.0  0.73148  0.34576  0.04460  1.0000
  C   C17       1.0  0.21762  0.55153  0.85997  1.0000
  C   C18       1.0  0.78237  0.44847  0.14004  1.0000
  C   C19       1.0  0.18799  0.43158  0.85824  1.0000
  C   C20       1.0  0.81199  0.56842  0.14176  1.0000
  C   C21       1.0  0.21589  0.41080  0.95055  1.0000
  C   C22       1.0  0.78408  0.58921  0.04945  1.0000
  C   C23       1.0  0.27309  0.51340  0.04681  1.0000
  C   C24       1.0  0.72692  0.48660  0.95320  1.0000
  C   C25       1.0  0.29535  0.63365  0.04676  1.0000
  C   C26       1.0  0.70462  0.36635  0.95324  1.0000
  C   C27       1.0  0.32225  0.49332  0.14343  1.0000
  C   C28       1.0  0.67774  0.50668  0.85658  1.0000
  S   S1        1.0  0.09858  0.67131  0.48057  1.0000
  S   S2        1.0  0.90143  0.32869  0.51942  1.0000
  S   S3        1.0  0.30135  0.80726  0.95744  1.0000
  S   S4        1.0  0.69863  0.19275  0.04255  1.0000
  O   O1        1.0  0.91676  0.64619  0.51792  1.0000
  O   O2        1.0  0.08324  0.35381  0.48208  1.0000
  O   O3        1.0  0.48655  0.46317  0.60698  1.0000
  O   O4        1.0  0.51346  0.53683  0.39301  1.0000
  O   O5        1.0  0.27556  0.63100  0.52831  1.0000
  O   O6        1.0  0.72445  0.36900  0.47168  1.0000
  O   O7        1.0  0.80258  0.92323  0.84284  1.0000
  O   O8        1.0  0.19741  0.07676  0.15716  1.0000
  O   O9        1.0  0.05215  0.62083  0.36738  1.0000
  O   O10       1.0  0.94784  0.37917  0.63261  1.0000
  O   O11       1.0  0.86367  0.66669  0.70242  1.0000
  O   O12       1.0  0.13632  0.33330  0.29757  1.0000
  O   O13       1.0  0.24075  0.86808  0.69732  1.0000
  O   O14       1.0  0.75926  0.13191  0.30268  1.0000
  O   O15       1.0  0.15517  0.97238  0.28517  1.0000
  O   O16       1.0  0.84482  0.02763  0.71484  1.0000
  O   O17       1.0  0.33008  0.16238  0.39986  1.0000
  O   O18       1.0  0.66995  0.83762  0.60015  1.0000
  O   O19       1.0  0.37707  0.20784  0.59316  1.0000
  O   O20       1.0  0.62294  0.79216  0.40685  1.0000
  O   O21       1.0  0.10135  0.81589  0.89874  1.0000
  O   O22       1.0  0.89864  0.18412  0.10126  1.0000
  O   O23       1.0  0.46399  0.82360  0.90598  1.0000
  O   O24       1.0  0.53601  0.17639  0.09401  1.0000
  O   O25       1.0  0.35690  0.89011  0.06674  1.0000
  O   O26       1.0  0.64309  0.10988  0.93326  1.0000
  O   O27       1.0  0.19243  0.29333  0.94430  1.0000
  O   O28       1.0  0.80754  0.70668  0.05570  1.0000
  O   O29       1.0  0.38235  0.59353  0.22855  1.0000
  O   O30       1.0  0.61766  0.40647  0.77146  1.0000
  O   O31       1.0  0.31245  0.38548  0.14368  1.0000
  O   O32       1.0  0.68756  0.61452  0.85633  1.0000
  O   O33       1.0  0.20250  0.57306  0.77135  1.0000
  O   O34       1.0  0.79750  0.42694  0.22865  1.0000
