data_image0
_chemical_formula_structural       Ag4H16C28Br4O12
_chemical_formula_sum              "Ag4 H16 C28 Br4 O12"
_cell_length_a       7.21637
_cell_length_b       8.21067
_cell_length_c       12.8752
_cell_angle_alpha    89.9999
_cell_angle_beta     94.0884
_cell_angle_gamma    90

_space_group_name_H-M_alt    "P 1"
_space_group_IT_number       1

loop_
  _space_group_symop_operation_xyz
  'x, y, z'

loop_
  _atom_site_type_symbol
  _atom_site_label
  _atom_site_symmetry_multiplicity
  _atom_site_fract_x
  _atom_site_fract_y
  _atom_site_fract_z
  _atom_site_occupancy
  Ag  Ag1       1.0  0.54382  0.47139  0.10595  1.0000
  Ag  Ag2       1.0  0.95617  0.97139  0.39406  1.0000
  Ag  Ag3       1.0  0.45617  0.52861  0.89405  1.0000
  Ag  Ag4       1.0  0.04384  0.02862  0.60594  1.0000
  H   H1        1.0  0.54717  0.73273  0.29326  1.0000
  H   H2        1.0  0.95282  0.23273  0.20674  1.0000
  H   H3        1.0  0.45282  0.26727  0.70673  1.0000
  H   H4        1.0  0.04718  0.76726  0.79326  1.0000
  H   H5        1.0  0.55519  0.91389  0.44690  1.0000
  H   H6        1.0  0.94481  0.41389  0.05310  1.0000
  H   H7        1.0  0.44481  0.08611  0.55309  1.0000
  H   H8        1.0  0.05519  0.58611  0.94691  1.0000
  H   H9        1.0  0.81457  0.52960  0.63566  1.0000
  H   H10       1.0  0.68544  0.02960  0.86434  1.0000
  H   H11       1.0  0.18543  0.47041  0.36434  1.0000
  H   H12       1.0  0.31457  0.97041  0.13566  1.0000
  H   H13       1.0  0.72491  0.32544  0.31794  1.0000
  H   H14       1.0  0.77508  0.82544  0.18207  1.0000
  H   H15       1.0  0.27509  0.67456  0.68207  1.0000
  H   H16       1.0  0.22492  0.17456  0.81793  1.0000
  C   C1        1.0  0.67722  0.53090  0.37691  1.0000
  C   C2        1.0  0.82278  0.03090  0.12309  1.0000
  C   C3        1.0  0.32279  0.46910  0.62309  1.0000
  C   C4        1.0  0.17722  0.96909  0.87691  1.0000
  C   C5        1.0  0.60794  0.69017  0.36825  1.0000
  C   C6        1.0  0.89206  0.19017  0.13175  1.0000
  C   C7        1.0  0.39207  0.30983  0.63175  1.0000
  C   C8        1.0  0.10794  0.80982  0.86825  1.0000
  C   C9        1.0  0.61248  0.79156  0.45497  1.0000
  C   C10       1.0  0.88752  0.29155  0.04503  1.0000
  C   C11       1.0  0.38752  0.20845  0.54502  1.0000
  C   C12       1.0  0.11248  0.70844  0.95497  1.0000
  C   C13       1.0  0.68469  0.73211  0.55140  1.0000
  C   C14       1.0  0.81531  0.23211  0.94861  1.0000
  C   C15       1.0  0.31532  0.26790  0.44860  1.0000
  C   C16       1.0  0.18469  0.76789  0.05140  1.0000
  C   C17       1.0  0.75535  0.57564  0.56136  1.0000
  C   C18       1.0  0.74465  0.07563  0.93865  1.0000
  C   C19       1.0  0.24465  0.42437  0.43864  1.0000
  C   C20       1.0  0.25535  0.92437  0.06136  1.0000
  C   C21       1.0  0.75296  0.47266  0.47446  1.0000
  C   C22       1.0  0.74704  0.97266  0.02555  1.0000
  C   C23       1.0  0.24705  0.52734  0.52555  1.0000
  C   C24       1.0  0.25296  0.02734  0.97445  1.0000
  C   C25       1.0  0.83081  0.30521  0.48626  1.0000
  C   C26       1.0  0.66920  0.80521  0.01374  1.0000
  C   C27       1.0  0.16920  0.69479  0.51374  1.0000
  C   C28       1.0  0.33080  0.19479  0.98626  1.0000
  Br  Br1       1.0  0.68632  0.86694  0.67251  1.0000
  Br  Br2       1.0  0.81366  0.36695  0.82749  1.0000
  Br  Br3       1.0  0.31368  0.13308  0.32748  1.0000
  Br  Br4       1.0  0.18631  0.63307  0.17252  1.0000
  O   O1        1.0  0.66964  0.43417  0.29157  1.0000
  O   O2        1.0  0.83035  0.93417  0.20844  1.0000
  O   O3        1.0  0.33036  0.56583  0.70843  1.0000
  O   O4        1.0  0.16965  0.06582  0.79156  1.0000
  O   O5        1.0  0.82201  0.21592  0.40270  1.0000
  O   O6        1.0  0.67799  0.71592  0.09730  1.0000
  O   O7        1.0  0.17800  0.78408  0.59730  1.0000
  O   O8        1.0  0.32200  0.28408  0.90269  1.0000
  O   O9        1.0  0.89963  0.26136  0.57459  1.0000
  O   O10       1.0  0.60038  0.76136  0.92541  1.0000
  O   O11       1.0  0.10038  0.73864  0.42541  1.0000
  O   O12       1.0  0.39961  0.23864  0.07458  1.0000
