data_image0
_chemical_formula_structural       Zn4H16C24N24O16
_chemical_formula_sum              "Zn4 H16 C24 N24 O16"
_cell_length_a       9.24037
_cell_length_b       10.1231
_cell_length_c       11.4822
_cell_angle_alpha    79.2425
_cell_angle_beta     66.5834
_cell_angle_gamma    87.0181

_space_group_name_H-M_alt    "P 1"
_space_group_IT_number       1

loop_
  _space_group_symop_operation_xyz
  'x, y, z'

loop_
  _atom_site_type_symbol
  _atom_site_label
  _atom_site_symmetry_multiplicity
  _atom_site_fract_x
  _atom_site_fract_y
  _atom_site_fract_z
  _atom_site_occupancy
  Zn  Zn1       1.0  0.97426  0.42399  0.66616  1.0000
  Zn  Zn2       1.0  0.02574  0.57601  0.33384  1.0000
  Zn  Zn3       1.0  0.91464  0.14910  0.94048  1.0000
  Zn  Zn4       1.0  0.08536  0.85090  0.05952  1.0000
  H   H1        1.0  0.55152  0.09292  0.00765  1.0000
  H   H2        1.0  0.44848  0.90708  0.99235  1.0000
  H   H3        1.0  0.65618  0.36111  0.63933  1.0000
  H   H4        1.0  0.34382  0.63889  0.36067  1.0000
  H   H5        1.0  0.10907  0.29261  0.05848  1.0000
  H   H6        1.0  0.89093  0.70739  0.94153  1.0000
  H   H7        1.0  0.24304  0.58394  0.69992  1.0000
  H   H8        1.0  0.75696  0.41605  0.30008  1.0000
  H   H9        1.0  0.20995  0.32690  0.20989  1.0000
  H   H10       1.0  0.79005  0.67310  0.79011  1.0000
  H   H11       1.0  0.25587  0.21839  0.57788  1.0000
  H   H12       1.0  0.74413  0.78161  0.42212  1.0000
  H   H13       1.0  0.03066  0.94237  0.32825  1.0000
  H   H14       1.0  0.96934  0.05762  0.67175  1.0000
  H   H15       1.0  0.72587  0.23444  0.21459  1.0000
  H   H16       1.0  0.27413  0.76556  0.78541  1.0000
  C   C1        1.0  0.60282  0.16290  0.91724  1.0000
  C   C2        1.0  0.39718  0.83710  0.08276  1.0000
  C   C3        1.0  0.54082  0.21491  0.82519  1.0000
  C   C4        1.0  0.45918  0.78509  0.17481  1.0000
  C   C5        1.0  0.65725  0.30264  0.72817  1.0000
  C   C6        1.0  0.34275  0.69736  0.27183  1.0000
  C   C7        1.0  0.12094  0.35360  0.96685  1.0000
  C   C8        1.0  0.87906  0.64639  0.03315  1.0000
  C   C9        1.0  0.21939  0.46605  0.89498  1.0000
  C   C10       1.0  0.78061  0.53395  0.10502  1.0000
  C   C11       1.0  0.19166  0.50246  0.78162  1.0000
  C   C12       1.0  0.80834  0.49754  0.21838  1.0000
  C   C13       1.0  0.19575  0.31478  0.30961  1.0000
  C   C14       1.0  0.80425  0.68522  0.69039  1.0000
  C   C15       1.0  0.27059  0.22641  0.37579  1.0000
  C   C16       1.0  0.72941  0.77359  0.62421  1.0000
  C   C17       1.0  0.22289  0.26094  0.49801  1.0000
  C   C18       1.0  0.77711  0.73906  0.50199  1.0000
  C   C19       1.0  0.96460  0.00465  0.27979  1.0000
  C   C20       1.0  0.03540  0.99535  0.72021  1.0000
  C   C21       1.0  0.85872  0.10743  0.32124  1.0000
  C   C22       1.0  0.14128  0.89257  0.67876  1.0000
  C   C23       1.0  0.80949  0.15679  0.22077  1.0000
  C   C24       1.0  0.19051  0.84321  0.77923  1.0000
  N   N1        1.0  0.78146  0.30209  0.76005  1.0000
  N   N2        1.0  0.21854  0.69791  0.23995  1.0000
  N   N3        1.0  0.74786  0.21488  0.87646  1.0000
  N   N4        1.0  0.25214  0.78512  0.12354  1.0000
  N   N5        1.0  0.39473  0.17765  0.82698  1.0000
  N   N6        1.0  0.60527  0.82235  0.17301  1.0000
  N   N7        1.0  0.08222  0.41724  0.78734  1.0000
  N   N8        1.0  0.91778  0.58276  0.21266  1.0000
  N   N9        1.0  0.04034  0.32432  0.90048  1.0000
  N   N10       1.0  0.95966  0.67568  0.09952  1.0000
  N   N11       1.0  0.32293  0.53126  0.93152  1.0000
  N   N12       1.0  0.67707  0.46874  0.06848  1.0000
  N   N13       1.0  0.12282  0.36287  0.50465  1.0000
  N   N14       1.0  0.87718  0.63713  0.49535  1.0000
  N   N15       1.0  0.10696  0.39684  0.38788  1.0000
  N   N16       1.0  0.89304  0.60316  0.61212  1.0000
  N   N17       1.0  0.37554  0.12355  0.32633  1.0000
  N   N18       1.0  0.62446  0.87645  0.67367  1.0000
  N   N19       1.0  0.88264  0.08887  0.12505  1.0000
  N   N20       1.0  0.11736  0.91113  0.87495  1.0000
  N   N21       1.0  0.97691  0.99428  0.16171  1.0000
  N   N22       1.0  0.02309  0.00572  0.83829  1.0000
  N   N23       1.0  0.81289  0.15671  0.43820  1.0000
  N   N24       1.0  0.18711  0.84329  0.56180  1.0000
  O   O1        1.0  0.36342  0.22160  0.73102  1.0000
  O   O2        1.0  0.63658  0.77840  0.26898  1.0000
  O   O3        1.0  0.30344  0.10278  0.92648  1.0000
  O   O4        1.0  0.69656  0.89722  0.07352  1.0000
  O   O5        1.0  0.41155  0.62412  0.85101  1.0000
  O   O6        1.0  0.58845  0.37588  0.14899  1.0000
  O   O7        1.0  0.31885  0.49358  0.04240  1.0000
  O   O8        1.0  0.68115  0.50642  0.95760  1.0000
  O   O9        1.0  0.44892  0.06529  0.39067  1.0000
  O   O10       1.0  0.55107  0.93471  0.60934  1.0000
  O   O11       1.0  0.38717  0.09784  0.22079  1.0000
  O   O12       1.0  0.61284  0.90216  0.77921  1.0000
  O   O13       1.0  0.72570  0.25647  0.45186  1.0000
  O   O14       1.0  0.27430  0.74353  0.54815  1.0000
  O   O15       1.0  0.86319  0.10019  0.52016  1.0000
  O   O16       1.0  0.13681  0.89981  0.47984  1.0000
