data_image0
_chemical_formula_structural       Co2H24C28S6N12O12
_chemical_formula_sum              "Co2 H24 C28 S6 N12 O12"
_cell_length_a       8.44725
_cell_length_b       9.71862
_cell_length_c       12.9223
_cell_angle_alpha    109.438
_cell_angle_beta     92.3237
_cell_angle_gamma    107.114

_space_group_name_H-M_alt    "P 1"
_space_group_IT_number       1

loop_
  _space_group_symop_operation_xyz
  'x, y, z'

loop_
  _atom_site_type_symbol
  _atom_site_label
  _atom_site_symmetry_multiplicity
  _atom_site_fract_x
  _atom_site_fract_y
  _atom_site_fract_z
  _atom_site_occupancy
  Co  Co1       1.0  0.82398  0.81778  0.66661  1.0000
  Co  Co2       1.0  0.17602  0.18223  0.33340  1.0000
  H   H1        1.0  0.99397  0.78735  0.47926  1.0000
  H   H2        1.0  0.00603  0.21266  0.52074  1.0000
  H   H3        1.0  0.16060  0.98392  0.65412  1.0000
  H   H4        1.0  0.83940  0.01607  0.34588  1.0000
  H   H5        1.0  0.95105  0.82444  0.89487  1.0000
  H   H6        1.0  0.04895  0.17556  0.10512  1.0000
  H   H7        1.0  0.80076  0.31782  0.25145  1.0000
  H   H8        1.0  0.19923  0.68218  0.74856  1.0000
  H   H9        1.0  0.64453  0.46643  0.57327  1.0000
  H   H10       1.0  0.35547  0.53358  0.42674  1.0000
  H   H11       1.0  0.22718  0.93469  0.01788  1.0000
  H   H12       1.0  0.77283  0.06531  0.98212  1.0000
  H   H13       1.0  0.48082  0.07747  0.95326  1.0000
  H   H14       1.0  0.51918  0.92253  0.04674  1.0000
  H   H15       1.0  0.05067  0.50230  0.21802  1.0000
  H   H16       1.0  0.94931  0.49768  0.78199  1.0000
  H   H17       1.0  0.15165  0.68480  0.32595  1.0000
  H   H18       1.0  0.84834  0.31519  0.67404  1.0000
  H   H19       1.0  0.62654  0.25558  0.39447  1.0000
  H   H20       1.0  0.37346  0.74443  0.60554  1.0000
  H   H21       1.0  0.46461  0.06470  0.65954  1.0000
  H   H22       1.0  0.53539  0.93529  0.34045  1.0000
  H   H23       1.0  0.60234  0.09617  0.78045  1.0000
  H   H24       1.0  0.39766  0.90383  0.21955  1.0000
  C   C1        1.0  0.91491  0.55695  0.35626  1.0000
  C   C2        1.0  0.08507  0.44305  0.64375  1.0000
  C   C3        1.0  0.91409  0.66788  0.45781  1.0000
  C   C4        1.0  0.08591  0.33212  0.54219  1.0000
  C   C5        1.0  0.34098  0.03896  0.79748  1.0000
  C   C6        1.0  0.65902  0.96105  0.20252  1.0000
  C   C7        1.0  0.18051  0.97644  0.73561  1.0000
  C   C8        1.0  0.81949  0.02356  0.26439  1.0000
  C   C9        1.0  0.66073  0.39228  0.91173  1.0000
  C   C10       1.0  0.33926  0.60772  0.08826  1.0000
  C   C11       1.0  0.06256  0.88927  0.87087  1.0000
  C   C12       1.0  0.93744  0.11073  0.12913  1.0000
  C   C13       1.0  0.80781  0.40604  0.33158  1.0000
  C   C14       1.0  0.19218  0.59396  0.66843  1.0000
  C   C15       1.0  0.71808  0.48855  0.50973  1.0000
  C   C16       1.0  0.28192  0.51145  0.49028  1.0000
  C   C17       1.0  0.21722  0.95119  0.93883  1.0000
  C   C18       1.0  0.78278  0.04880  0.06117  1.0000
  C   C19       1.0  0.35790  0.02689  0.90211  1.0000
  C   C20       1.0  0.64210  0.97311  0.09789  1.0000
  C   C21       1.0  0.03014  0.60236  0.27926  1.0000
  C   C22       1.0  0.96984  0.39762  0.72074  1.0000
  C   C23       1.0  0.70998  0.37175  0.40981  1.0000
  C   C24       1.0  0.29001  0.62825  0.59020  1.0000
  C   C25       1.0  0.48839  0.11253  0.75072  1.0000
  C   C26       1.0  0.51161  0.88747  0.24928  1.0000
  C   C27       1.0  0.83614  0.55062  0.08611  1.0000
  C   C28       1.0  0.16386  0.44937  0.91389  1.0000
  S   S1        1.0  0.95518  0.70438  0.20262  1.0000
  S   S2        1.0  0.04481  0.29562  0.79737  1.0000
  S   S3        1.0  0.72797  0.59034  0.98801  1.0000
  S   S4        1.0  0.27203  0.40965  0.01198  1.0000
  S   S5        1.0  0.53300  0.31933  0.78370  1.0000
  S   S6        1.0  0.46700  0.68067  0.21629  1.0000
  N   N1        1.0  0.81799  0.63549  0.53297  1.0000
  N   N2        1.0  0.18201  0.36452  0.46704  1.0000
  N   N3        1.0  0.61694  0.73063  0.79250  1.0000
  N   N4        1.0  0.38306  0.26937  0.20750  1.0000
  N   N5        1.0  0.81777  0.40353  0.06040  1.0000
  N   N6        1.0  0.18222  0.59646  0.93959  1.0000
  N   N7        1.0  0.04382  0.90242  0.77058  1.0000
  N   N8        1.0  0.95618  0.09758  0.22942  1.0000
  N   N9        1.0  0.72785  0.96456  0.54413  1.0000
  N   N10       1.0  0.27217  0.03544  0.45589  1.0000
  N   N11       1.0  0.71637  0.31292  0.96068  1.0000
  N   N12       1.0  0.28363  0.68708  0.03931  1.0000
  O   O1        1.0  0.71728  0.06461  0.50684  1.0000
  O   O2        1.0  0.28271  0.93538  0.49316  1.0000
  O   O3        1.0  0.86520  0.99359  0.61128  1.0000
  O   O4        1.0  0.13483  0.00642  0.38872  1.0000
  O   O5        1.0  0.70966  0.64741  0.75840  1.0000
  O   O6        1.0  0.29034  0.35260  0.24159  1.0000
  O   O7        1.0  0.61575  0.83693  0.52262  1.0000
  O   O8        1.0  0.38427  0.16308  0.47742  1.0000
  O   O9        1.0  0.51086  0.70735  0.85245  1.0000
  O   O10       1.0  0.48915  0.29264  0.14755  1.0000
  O   O11       1.0  0.64284  0.84702  0.75804  1.0000
  O   O12       1.0  0.35717  0.15299  0.24197  1.0000
