data_image0
_chemical_formula_structural       Co2H24C28S6N8Cl4
_chemical_formula_sum              "Co2 H24 C28 S6 N8 Cl4"
_cell_length_a       8.44892
_cell_length_b       9.03814
_cell_length_c       11.9683
_cell_angle_alpha    104.97
_cell_angle_beta     95.1143
_cell_angle_gamma    101.863

_space_group_name_H-M_alt    "P 1"
_space_group_IT_number       1

loop_
  _space_group_symop_operation_xyz
  'x, y, z'

loop_
  _atom_site_type_symbol
  _atom_site_label
  _atom_site_symmetry_multiplicity
  _atom_site_fract_x
  _atom_site_fract_y
  _atom_site_fract_z
  _atom_site_occupancy
  Co  Co1       1.0  0.19312  0.64639  0.83863  1.0000
  Co  Co2       1.0  0.80688  0.35361  0.16137  1.0000
  H   H1        1.0  0.05866  0.65342  0.60725  1.0000
  H   H2        1.0  0.94133  0.34658  0.39275  1.0000
  H   H3        1.0  0.78491  0.56235  0.47862  1.0000
  H   H4        1.0  0.21509  0.43764  0.52138  1.0000
  H   H5        1.0  0.54486  0.42121  0.55150  1.0000
  H   H6        1.0  0.45514  0.57878  0.44850  1.0000
  H   H7        1.0  0.86457  0.48428  0.86928  1.0000
  H   H8        1.0  0.13543  0.51573  0.13072  1.0000
  H   H9        1.0  0.43254  0.40079  0.74067  1.0000
  H   H10       1.0  0.56746  0.59921  0.25933  1.0000
  H   H11       1.0  0.57136  0.40760  0.86377  1.0000
  H   H12       1.0  0.42865  0.59241  0.13623  1.0000
  H   H13       1.0  0.36847  0.98257  0.89909  1.0000
  H   H14       1.0  0.63152  0.01743  0.10091  1.0000
  H   H15       1.0  0.38784  0.22695  0.06266  1.0000
  H   H16       1.0  0.61216  0.77305  0.93734  1.0000
  H   H17       1.0  0.21726  0.20992  0.22244  1.0000
  H   H18       1.0  0.78274  0.79008  0.77756  1.0000
  H   H19       1.0  0.01848  0.71968  0.03975  1.0000
  H   H20       1.0  0.98152  0.28032  0.96025  1.0000
  H   H21       1.0  0.85935  0.88803  0.18237  1.0000
  H   H22       1.0  0.14065  0.11198  0.81764  1.0000
  H   H23       1.0  0.98041  0.06543  0.28381  1.0000
  H   H24       1.0  0.01959  0.93457  0.71619  1.0000
  C   C1        1.0  0.95024  0.59312  0.63482  1.0000
  C   C2        1.0  0.04976  0.40688  0.36518  1.0000
  C   C3        1.0  0.79880  0.54157  0.56412  1.0000
  C   C4        1.0  0.20120  0.45842  0.43588  1.0000
  C   C5        1.0  0.66512  0.46553  0.60484  1.0000
  C   C6        1.0  0.33488  0.53447  0.39516  1.0000
  C   C7        1.0  0.68591  0.44374  0.71646  1.0000
  C   C8        1.0  0.31409  0.55625  0.28354  1.0000
  C   C9        1.0  0.84235  0.49825  0.78181  1.0000
  C   C10       1.0  0.15765  0.50175  0.21819  1.0000
  C   C11       1.0  0.54559  0.36958  0.76775  1.0000
  C   C12       1.0  0.45441  0.63042  0.23225  1.0000
  C   C13       1.0  0.36954  0.09943  0.60120  1.0000
  C   C14       1.0  0.63046  0.90057  0.39880  1.0000
  C   C15       1.0  0.29539  0.98200  0.96967  1.0000
  C   C16       1.0  0.70461  0.01800  0.03033  1.0000
  C   C17       1.0  0.30452  0.11660  0.06029  1.0000
  C   C18       1.0  0.69548  0.88340  0.93971  1.0000
  C   C19       1.0  0.20801  0.10762  0.14815  1.0000
  C   C20       1.0  0.79199  0.89239  0.85185  1.0000
  C   C21       1.0  0.09991  0.96462  0.14086  1.0000
  C   C22       1.0  0.90009  0.03538  0.85914  1.0000
  C   C23       1.0  0.09920  0.83422  0.04758  1.0000
  C   C24       1.0  0.90080  0.16578  0.95242  1.0000
  C   C25       1.0  0.98360  0.94975  0.22735  1.0000
  C   C26       1.0  0.01640  0.05025  0.77265  1.0000
  C   C27       1.0  0.17258  0.96482  0.42997  1.0000
  C   C28       1.0  0.82743  0.03518  0.57003  1.0000
  S   S1        1.0  0.50243  0.15429  0.73248  1.0000
  S   S2        1.0  0.49756  0.84570  0.26753  1.0000
  S   S3        1.0  0.02594  0.82838  0.32117  1.0000
  S   S4        1.0  0.97407  0.17162  0.67883  1.0000
  S   S5        1.0  0.26516  0.90213  0.53978  1.0000
  S   S6        1.0  0.73484  0.09786  0.46022  1.0000
  N   N1        1.0  0.97218  0.57164  0.74222  1.0000
  N   N2        1.0  0.02782  0.42837  0.25779  1.0000
  N   N3        1.0  0.19563  0.84162  0.96435  1.0000
  N   N4        1.0  0.80437  0.15838  0.03565  1.0000
  N   N5        1.0  0.33482  0.19320  0.53992  1.0000
  N   N6        1.0  0.66518  0.80680  0.46008  1.0000
  N   N7        1.0  0.22162  0.11645  0.44199  1.0000
  N   N8        1.0  0.77839  0.88355  0.55801  1.0000
  Cl  Cl1       1.0  0.37486  0.70192  0.72527  1.0000
  Cl  Cl2       1.0  0.62514  0.29808  0.27473  1.0000
  Cl  Cl3       1.0  0.23486  0.46534  0.92536  1.0000
  Cl  Cl4       1.0  0.76514  0.53466  0.07463  1.0000
