data_image0
_chemical_formula_structural       Cs4H8C4N20
_chemical_formula_sum              "Cs4 H8 C4 N20"
_cell_length_a       6.81761
_cell_length_b       8.14319
_cell_length_c       9.14965
_cell_angle_alpha    90
_cell_angle_beta     90.0001
_cell_angle_gamma    90.0001

_space_group_name_H-M_alt    "P 1"
_space_group_IT_number       1

loop_
  _space_group_symop_operation_xyz
  'x, y, z'

loop_
  _atom_site_type_symbol
  _atom_site_label
  _atom_site_symmetry_multiplicity
  _atom_site_fract_x
  _atom_site_fract_y
  _atom_site_fract_z
  _atom_site_occupancy
  Cs  Cs1       1.0  0.75000  0.51280  0.80646  1.0000
  Cs  Cs2       1.0  0.25000  0.98720  0.30646  1.0000
  Cs  Cs3       1.0  0.25000  0.48720  0.19354  1.0000
  Cs  Cs4       1.0  0.75000  0.01280  0.69354  1.0000
  H   H1        1.0  0.37688  0.69461  0.57650  1.0000
  H   H2        1.0  0.62312  0.80539  0.07650  1.0000
  H   H3        1.0  0.87687  0.30539  0.42350  1.0000
  H   H4        1.0  0.12312  0.19461  0.92350  1.0000
  H   H5        1.0  0.62312  0.30540  0.42350  1.0000
  H   H6        1.0  0.37688  0.19460  0.92350  1.0000
  H   H7        1.0  0.12312  0.69461  0.57650  1.0000
  H   H8        1.0  0.87688  0.80539  0.07650  1.0000
  C   C1        1.0  0.25000  0.77302  0.76374  1.0000
  C   C2        1.0  0.75000  0.72698  0.26374  1.0000
  C   C3        1.0  0.75000  0.22698  0.23626  1.0000
  C   C4        1.0  0.25000  0.27302  0.73626  1.0000
  N   N1        1.0  0.41388  0.79143  0.84504  1.0000
  N   N2        1.0  0.58612  0.70857  0.34504  1.0000
  N   N3        1.0  0.91388  0.20857  0.15496  1.0000
  N   N4        1.0  0.08612  0.29143  0.65496  1.0000
  N   N5        1.0  0.58613  0.20857  0.15496  1.0000
  N   N6        1.0  0.41388  0.29143  0.65496  1.0000
  N   N7        1.0  0.08612  0.79143  0.84504  1.0000
  N   N8        1.0  0.91387  0.70857  0.34504  1.0000
  N   N9        1.0  0.34642  0.82223  0.98177  1.0000
  N   N10       1.0  0.65358  0.67777  0.48177  1.0000
  N   N11       1.0  0.84642  0.17777  0.01823  1.0000
  N   N12       1.0  0.15358  0.32223  0.51823  1.0000
  N   N13       1.0  0.65358  0.17778  0.01823  1.0000
  N   N14       1.0  0.34642  0.32222  0.51823  1.0000
  N   N15       1.0  0.15358  0.82223  0.98177  1.0000
  N   N16       1.0  0.84642  0.67777  0.48177  1.0000
  N   N17       1.0  0.25000  0.74593  0.61549  1.0000
  N   N18       1.0  0.75000  0.75407  0.11549  1.0000
  N   N19       1.0  0.75001  0.25407  0.38451  1.0000
  N   N20       1.0  0.24999  0.24593  0.88451  1.0000
