data_image0
_chemical_formula_structural       Cd2H24C24Br4N8O12
_chemical_formula_sum              "Cd2 H24 C24 Br4 N8 O12"
_cell_length_a       3.92936
_cell_length_b       8.06725
_cell_length_c       28.5403
_cell_angle_alpha    89.0815
_cell_angle_beta     86.0292
_cell_angle_gamma    76.6629

_space_group_name_H-M_alt    "P 1"
_space_group_IT_number       1

loop_
  _space_group_symop_operation_xyz
  'x, y, z'

loop_
  _atom_site_type_symbol
  _atom_site_label
  _atom_site_symmetry_multiplicity
  _atom_site_fract_x
  _atom_site_fract_y
  _atom_site_fract_z
  _atom_site_occupancy
  Cd  Cd1       1.0  0.24726  0.00774  0.00177  1.0000
  Cd  Cd2       1.0  0.99686  0.50764  0.49832  1.0000
  H   H1        1.0  0.86853  0.46109  0.03166  1.0000
  H   H2        1.0  0.08311  0.06307  0.53414  1.0000
  H   H3        1.0  0.64748  0.96111  0.46844  1.0000
  H   H4        1.0  0.36901  0.56279  0.96582  1.0000
  H   H5        1.0  0.11613  0.33566  0.10704  1.0000
  H   H6        1.0  0.19365  0.17513  0.61256  1.0000
  H   H7        1.0  0.97072  0.83533  0.39311  1.0000
  H   H8        1.0  0.55959  0.67477  0.88742  1.0000
  H   H9        1.0  0.19010  0.85991  0.10428  1.0000
  H   H10       1.0  0.80240  0.64421  0.59850  1.0000
  H   H11       1.0  0.04296  0.35984  0.39569  1.0000
  H   H12       1.0  0.15277  0.14415  0.90140  1.0000
  H   H13       1.0  0.57767  0.83621  0.21107  1.0000
  H   H14       1.0  0.15184  0.64604  0.70657  1.0000
  H   H15       1.0  0.53864  0.33579  0.28896  1.0000
  H   H16       1.0  0.61055  0.14636  0.79329  1.0000
  H   H17       1.0  0.18169  0.90928  0.18271  1.0000
  H   H18       1.0  0.83018  0.57878  0.67557  1.0000
  H   H19       1.0  0.11394  0.40898  0.31725  1.0000
  H   H20       1.0  0.25802  0.07890  0.82430  1.0000
  H   H21       1.0  0.24731  0.72499  0.21962  1.0000
  H   H22       1.0  0.71423  0.75297  0.71608  1.0000
  H   H23       1.0  0.21668  0.22477  0.28035  1.0000
  H   H24       1.0  0.18228  0.25318  0.78382  1.0000
  C   C1        1.0  0.78115  0.51829  0.06598  1.0000
  C   C2        1.0  0.05108  0.99823  0.56738  1.0000
  C   C3        1.0  0.59458  0.01817  0.43409  1.0000
  C   C4        1.0  0.37044  0.49798  0.93257  1.0000
  C   C5        1.0  0.91191  0.45257  0.10757  1.0000
  C   C6        1.0  0.10980  0.05618  0.61051  1.0000
  C   C7        1.0  0.76724  0.95227  0.39253  1.0000
  C   C8        1.0  0.47301  0.55593  0.88946  1.0000
  C   C9        1.0  0.78229  0.53442  0.15003  1.0000
  C   C10       1.0  0.06168  0.96359  0.65124  1.0000
  C   C11       1.0  0.68090  0.03409  0.35006  1.0000
  C   C12       1.0  0.46547  0.46355  0.84869  1.0000
  C   C13       1.0  0.52400  0.68861  0.15098  1.0000
  C   C14       1.0  0.95725  0.80797  0.64896  1.0000
  C   C15       1.0  0.42368  0.18828  0.34904  1.0000
  C   C16       1.0  0.35826  0.30805  0.85095  1.0000
  C   C17       1.0  0.39933  0.74659  0.10775  1.0000
  C   C18       1.0  0.89665  0.75833  0.60438  1.0000
  C   C19       1.0  0.25529  0.24633  0.39227  1.0000
  C   C20       1.0  0.25289  0.25832  0.89553  1.0000
  C   C21       1.0  0.37257  0.79534  0.19312  1.0000
  C   C22       1.0  0.90845  0.69048  0.68870  1.0000
  C   C23       1.0  0.31526  0.29502  0.30688  1.0000
  C   C24       1.0  0.34924  0.19069  0.81119  1.0000
  Br  Br1       1.0  0.82335  0.91708  0.93813  1.0000
  Br  Br2       1.0  0.48783  0.59230  0.43479  1.0000
  Br  Br3       1.0  0.50691  0.41744  0.56202  1.0000
  Br  Br4       1.0  0.67278  0.09299  0.06532  1.0000
  N   N1        1.0  0.51892  0.66254  0.06666  1.0000
  N   N2        1.0  0.93865  0.85072  0.56492  1.0000
  N   N3        1.0  0.33317  0.16241  0.43338  1.0000
  N   N4        1.0  0.25532  0.35059  0.93501  1.0000
  N   N5        1.0  0.92524  0.45149  0.19274  1.0000
  N   N6        1.0  0.12261  0.03682  0.69570  1.0000
  N   N7        1.0  0.86734  0.95115  0.30738  1.0000
  N   N8        1.0  0.57193  0.53653  0.80424  1.0000
  O   O1        1.0  0.37815  0.71679  0.02737  1.0000
  O   O2        1.0  0.86587  0.80044  0.52416  1.0000
  O   O3        1.0  0.15289  0.21676  0.47266  1.0000
  O   O4        1.0  0.14145  0.30031  0.97577  1.0000
  O   O5        1.0  0.16789  0.32187  0.18809  1.0000
  O   O6        1.0  0.24545  0.16592  0.69369  1.0000
  O   O7        1.0  0.10466  0.82129  0.31207  1.0000
  O   O8        1.0  0.69673  0.66442  0.80624  1.0000
  O   O9        1.0  0.79614  0.51421  0.23126  1.0000
  O   O10       1.0  0.04825  0.96655  0.73281  1.0000
  O   O11       1.0  0.77811  0.01419  0.26885  1.0000
  O   O12       1.0  0.53172  0.46721  0.76712  1.0000
