data_image0
_chemical_formula_structural       Cu4H40C32N8Cl4O4
_chemical_formula_sum              "Cu4 H40 C32 N8 Cl4 O4"
_cell_length_a       4.78016
_cell_length_b       13.7256
_cell_length_c       13.9434
_cell_angle_alpha    90
_cell_angle_beta     90
_cell_angle_gamma    89.9999

_space_group_name_H-M_alt    "P 1"
_space_group_IT_number       1

loop_
  _space_group_symop_operation_xyz
  'x, y, z'

loop_
  _atom_site_type_symbol
  _atom_site_label
  _atom_site_symmetry_multiplicity
  _atom_site_fract_x
  _atom_site_fract_y
  _atom_site_fract_z
  _atom_site_occupancy
  Cu  Cu1       1.0  0.11334  0.78712  0.57115  1.0000
  Cu  Cu2       1.0  0.38667  0.21288  0.07115  1.0000
  Cu  Cu3       1.0  0.88667  0.28712  0.92885  1.0000
  Cu  Cu4       1.0  0.61333  0.71288  0.42885  1.0000
  H   H1        1.0  0.85332  0.70787  0.83534  1.0000
  H   H2        1.0  0.64668  0.29213  0.33534  1.0000
  H   H3        1.0  0.14669  0.20787  0.66466  1.0000
  H   H4        1.0  0.35332  0.79213  0.16466  1.0000
  H   H5        1.0  0.88913  0.97128  0.63413  1.0000
  H   H6        1.0  0.61087  0.02872  0.13413  1.0000
  H   H7        1.0  0.11087  0.47128  0.86588  1.0000
  H   H8        1.0  0.38913  0.52872  0.36587  1.0000
  H   H9        1.0  0.95841  0.08662  0.76948  1.0000
  H   H10       1.0  0.54159  0.91338  0.26948  1.0000
  H   H11       1.0  0.04159  0.58662  0.73052  1.0000
  H   H12       1.0  0.45841  0.41338  0.23052  1.0000
  H   H13       1.0  0.33441  0.05028  0.89180  1.0000
  H   H14       1.0  0.16559  0.94972  0.39180  1.0000
  H   H15       1.0  0.66559  0.55028  0.60820  1.0000
  H   H16       1.0  0.83441  0.44972  0.10820  1.0000
  H   H17       1.0  0.60804  0.89584  0.87384  1.0000
  H   H18       1.0  0.89196  0.10416  0.37384  1.0000
  H   H19       1.0  0.39196  0.39584  0.62616  1.0000
  H   H20       1.0  0.10804  0.60416  0.12616  1.0000
  H   H21       1.0  0.40644  0.70585  0.69614  1.0000
  H   H22       1.0  0.09357  0.29415  0.19614  1.0000
  H   H23       1.0  0.59356  0.20585  0.80386  1.0000
  H   H24       1.0  0.90644  0.79415  0.30386  1.0000
  H   H25       1.0  0.72733  0.76874  0.68713  1.0000
  H   H26       1.0  0.77267  0.23126  0.18713  1.0000
  H   H27       1.0  0.27267  0.26874  0.81287  1.0000
  H   H28       1.0  0.22733  0.73125  0.31287  1.0000
  H   H29       1.0  0.48530  0.55522  0.98316  1.0000
  H   H30       1.0  0.01470  0.44478  0.48315  1.0000
  H   H31       1.0  0.51470  0.05523  0.51684  1.0000
  H   H32       1.0  0.98529  0.94477  0.01684  1.0000
  H   H33       1.0  0.53372  0.67206  0.03575  1.0000
  H   H34       1.0  0.96628  0.32794  0.53575  1.0000
  H   H35       1.0  0.46628  0.17206  0.46425  1.0000
  H   H36       1.0  0.03372  0.82794  0.96425  1.0000
  H   H37       1.0  0.81036  0.61911  0.96795  1.0000
  H   H38       1.0  0.68964  0.38089  0.46795  1.0000
  H   H39       1.0  0.18965  0.11912  0.53205  1.0000
  H   H40       1.0  0.31035  0.88089  0.03205  1.0000
  C   C1        1.0  0.04540  0.95711  0.68928  1.0000
  C   C2        1.0  0.45461  0.04289  0.18928  1.0000
  C   C3        1.0  0.95460  0.45711  0.81072  1.0000
  C   C4        1.0  0.54539  0.54289  0.31072  1.0000
  C   C5        1.0  0.08697  0.02151  0.76471  1.0000
  C   C6        1.0  0.41304  0.97849  0.26471  1.0000
  C   C7        1.0  0.91303  0.52151  0.73529  1.0000
  C   C8        1.0  0.58696  0.47849  0.23529  1.0000
  C   C9        1.0  0.29314  0.00075  0.83228  1.0000
  C   C10       1.0  0.20687  0.99925  0.33228  1.0000
  C   C11       1.0  0.70687  0.50075  0.66772  1.0000
  C   C12       1.0  0.79313  0.49925  0.16772  1.0000
  C   C13       1.0  0.44626  0.91512  0.82225  1.0000
  C   C14       1.0  0.05374  0.08488  0.32225  1.0000
  C   C15       1.0  0.55374  0.41512  0.67775  1.0000
  C   C16       1.0  0.94625  0.58488  0.17775  1.0000
  C   C17       1.0  0.38895  0.85181  0.74649  1.0000
  C   C18       1.0  0.11105  0.14819  0.24649  1.0000
  C   C19       1.0  0.61105  0.35181  0.75351  1.0000
  C   C20       1.0  0.88894  0.64819  0.25351  1.0000
  C   C21       1.0  0.54455  0.75722  0.73424  1.0000
  C   C22       1.0  0.95545  0.24278  0.23424  1.0000
  C   C23       1.0  0.45545  0.25722  0.76576  1.0000
  C   C24       1.0  0.04455  0.74278  0.26575  1.0000
  C   C25       1.0  0.46089  0.67454  0.88538  1.0000
  C   C26       1.0  0.03911  0.32546  0.38538  1.0000
  C   C27       1.0  0.53911  0.17454  0.61462  1.0000
  C   C28       1.0  0.96089  0.82546  0.11462  1.0000
  C   C29       1.0  0.58283  0.62691  0.97291  1.0000
  C   C30       1.0  0.91717  0.37309  0.47291  1.0000
  C   C31       1.0  0.41717  0.12691  0.52709  1.0000
  C   C32       1.0  0.08283  0.87309  0.02709  1.0000
  N   N1        1.0  0.19100  0.87306  0.67980  1.0000
  N   N2        1.0  0.30901  0.12694  0.17980  1.0000
  N   N3        1.0  0.80900  0.37306  0.82020  1.0000
  N   N4        1.0  0.69099  0.62694  0.32020  1.0000
  N   N5        1.0  0.64247  0.71550  0.82338  1.0000
  N   N6        1.0  0.85753  0.28450  0.32338  1.0000
  N   N7        1.0  0.35753  0.21551  0.67662  1.0000
  N   N8        1.0  0.14247  0.78449  0.17662  1.0000
  Cl  Cl1       1.0  0.22577  0.64236  0.51285  1.0000
  Cl  Cl2       1.0  0.27424  0.35764  0.01285  1.0000
  Cl  Cl3       1.0  0.77424  0.14236  0.98715  1.0000
  Cl  Cl4       1.0  0.72577  0.85764  0.48715  1.0000
  O   O1        1.0  0.20205  0.67666  0.87119  1.0000
  O   O2        1.0  0.29795  0.32334  0.37119  1.0000
  O   O3        1.0  0.79796  0.17666  0.62881  1.0000
  O   O4        1.0  0.70204  0.82334  0.12881  1.0000
