data_image0
_chemical_formula_structural       H16Pb4C12Cl4O8
_chemical_formula_sum              "H16 Pb4 C12 Cl4 O8"
_cell_length_a       4.30103
_cell_length_b       4.39681
_cell_length_c       27.4572
_cell_angle_alpha    89.9987
_cell_angle_beta     90.0016
_cell_angle_gamma    100.376

_space_group_name_H-M_alt    "P 1"
_space_group_IT_number       1

loop_
  _space_group_symop_operation_xyz
  'x, y, z'

loop_
  _atom_site_type_symbol
  _atom_site_label
  _atom_site_symmetry_multiplicity
  _atom_site_fract_x
  _atom_site_fract_y
  _atom_site_fract_z
  _atom_site_occupancy
  H   H1        1.0  0.43913  0.29537  0.96027  1.0000
  H   H2        1.0  0.06086  0.20463  0.46026  1.0000
  H   H3        1.0  0.56087  0.70466  0.03973  1.0000
  H   H4        1.0  0.93913  0.79535  0.53973  1.0000
  H   H5        1.0  0.08863  0.32310  0.92886  1.0000
  H   H6        1.0  0.41138  0.17690  0.42886  1.0000
  H   H7        1.0  0.91138  0.67691  0.07114  1.0000
  H   H8        1.0  0.58863  0.82308  0.57113  1.0000
  H   H9        1.0  0.18343  0.74445  0.98609  1.0000
  H   H10       1.0  0.31657  0.75554  0.48608  1.0000
  H   H11       1.0  0.81658  0.25557  0.01391  1.0000
  H   H12       1.0  0.68343  0.24444  0.51391  1.0000
  H   H13       1.0  0.83179  0.80294  0.95805  1.0000
  H   H14       1.0  0.66822  0.69707  0.45805  1.0000
  H   H15       1.0  0.16822  0.19709  0.04195  1.0000
  H   H16       1.0  0.33179  0.30292  0.54194  1.0000
  Pb  Pb1       1.0  0.69417  0.67014  0.82411  1.0000
  Pb  Pb2       1.0  0.80578  0.82983  0.32409  1.0000
  Pb  Pb3       1.0  0.30582  0.32985  0.17591  1.0000
  Pb  Pb4       1.0  0.19411  0.17010  0.67591  1.0000
  C   C1        1.0  0.35390  0.02151  0.89662  1.0000
  C   C2        1.0  0.14611  0.47847  0.39662  1.0000
  C   C3        1.0  0.64614  0.97848  0.10339  1.0000
  C   C4        1.0  0.85387  0.52153  0.60338  1.0000
  C   C5        1.0  0.23384  0.15730  0.94187  1.0000
  C   C6        1.0  0.26616  0.34269  0.44187  1.0000
  C   C7        1.0  0.76619  0.84271  0.05813  1.0000
  C   C8        1.0  0.73383  0.65729  0.55812  1.0000
  C   C9        1.0  0.04548  0.92404  0.97670  1.0000
  C   C10       1.0  0.45452  0.57597  0.47670  1.0000
  C   C11       1.0  0.95452  0.07598  0.02330  1.0000
  C   C12       1.0  0.54549  0.42402  0.52330  1.0000
  Cl  Cl1       1.0  0.11780  0.25247  0.78549  1.0000
  Cl  Cl2       1.0  0.38216  0.24755  0.28549  1.0000
  Cl  Cl3       1.0  0.88223  0.74753  0.21451  1.0000
  Cl  Cl4       1.0  0.61780  0.75249  0.71452  1.0000
  O   O1        1.0  0.60825  0.16415  0.87675  1.0000
  O   O2        1.0  0.89171  0.33583  0.37675  1.0000
  O   O3        1.0  0.39176  0.83586  0.12325  1.0000
  O   O4        1.0  0.10824  0.66419  0.62326  1.0000
  O   O5        1.0  0.20663  0.76476  0.87947  1.0000
  O   O6        1.0  0.29340  0.73524  0.37946  1.0000
  O   O7        1.0  0.79343  0.23524  0.12054  1.0000
  O   O8        1.0  0.70663  0.26477  0.62054  1.0000
