data_image0
_chemical_formula_structural       Cd4H28C44N16O8
_chemical_formula_sum              "Cd4 H28 C44 N16 O8"
_cell_length_a       7.74737
_cell_length_b       7.74726
_cell_length_c       19.7327
_cell_angle_alpha    100.512
_cell_angle_beta     100.512
_cell_angle_gamma    94.0946

_space_group_name_H-M_alt    "P 1"
_space_group_IT_number       1

loop_
  _space_group_symop_operation_xyz
  'x, y, z'

loop_
  _atom_site_type_symbol
  _atom_site_label
  _atom_site_symmetry_multiplicity
  _atom_site_fract_x
  _atom_site_fract_y
  _atom_site_fract_z
  _atom_site_occupancy
  Cd  Cd1       1.0  0.44390  0.78331  0.96235  1.0000
  Cd  Cd2       1.0  0.82093  0.48192  0.03767  1.0000
  Cd  Cd3       1.0  0.03329  0.19387  0.46235  1.0000
  Cd  Cd4       1.0  0.73190  0.57090  0.53768  1.0000
  H   H1        1.0  0.52166  0.24709  0.75843  1.0000
  H   H2        1.0  0.48856  0.76321  0.24152  1.0000
  H   H3        1.0  0.49707  0.27163  0.25844  1.0000
  H   H4        1.0  0.01323  0.23856  0.74153  1.0000
  H   H5        1.0  0.36871  0.45367  0.69383  1.0000
  H   H6        1.0  0.75976  0.67539  0.30617  1.0000
  H   H7        1.0  0.70369  0.11873  0.19383  1.0000
  H   H8        1.0  0.92538  0.50977  0.80618  1.0000
  H   H9        1.0  0.20866  0.67386  0.63660  1.0000
  H   H10       1.0  0.03698  0.57231  0.36352  1.0000
  H   H11       1.0  0.92388  0.95870  0.13659  1.0000
  H   H12       1.0  0.82229  0.78699  0.86352  1.0000
  H   H13       1.0  0.14629  0.95063  0.71291  1.0000
  H   H14       1.0  0.23774  0.43389  0.28729  1.0000
  H   H15       1.0  0.20064  0.89633  0.21291  1.0000
  H   H16       1.0  0.68386  0.98774  0.78730  1.0000
  H   H17       1.0  0.71607  0.16722  0.87838  1.0000
  H   H18       1.0  0.28830  0.83698  0.12151  1.0000
  H   H19       1.0  0.41718  0.46601  0.37838  1.0000
  H   H20       1.0  0.08698  0.03828  0.62151  1.0000
  H   H21       1.0  0.24483  0.99323  0.84284  1.0000
  H   H22       1.0  0.15096  0.40299  0.15737  1.0000
  H   H23       1.0  0.24323  0.99485  0.34284  1.0000
  H   H24       1.0  0.65295  0.90094  0.65737  1.0000
  H   H25       1.0  0.45734  0.23421  0.99305  1.0000
  H   H26       1.0  0.24025  0.46483  0.00667  1.0000
  H   H27       1.0  0.48419  0.20732  0.49305  1.0000
  H   H28       1.0  0.71480  0.99023  0.50666  1.0000
  C   C1        1.0  0.10208  0.97919  0.99566  1.0000
  C   C2        1.0  0.98276  0.10693  0.00418  1.0000
  C   C3        1.0  0.22918  0.85207  0.49567  1.0000
  C   C4        1.0  0.35691  0.73274  0.50419  1.0000
  C   C5        1.0  0.38647  0.60485  0.79923  1.0000
  C   C6        1.0  0.80593  0.58793  0.20083  1.0000
  C   C7        1.0  0.85486  0.13647  0.29924  1.0000
  C   C8        1.0  0.83792  0.55592  0.70083  1.0000
  C   C9        1.0  0.48380  0.48417  0.83662  1.0000
  C   C10       1.0  0.64775  0.64763  0.16339  1.0000
  C   C11       1.0  0.73416  0.23379  0.33662  1.0000
  C   C12       1.0  0.89763  0.39774  0.66340  1.0000
  C   C13       1.0  0.05725  0.78421  0.99457  1.0000
  C   C14       1.0  0.78896  0.06311  0.00538  1.0000
  C   C15       1.0  0.03420  0.80723  0.49457  1.0000
  C   C16       1.0  0.31310  0.53894  0.50538  1.0000
  C   C17       1.0  0.32033  0.19896  0.99549  1.0000
  C   C18       1.0  0.20262  0.32539  0.00423  1.0000
  C   C19       1.0  0.44895  0.07031  0.49550  1.0000
  C   C20       1.0  0.57537  0.95259  0.50423  1.0000
  C   C21       1.0  0.54480  0.32178  0.81199  1.0000
  C   C22       1.0  0.50971  0.73285  0.18797  1.0000
  C   C23       1.0  0.57177  0.29478  0.31200  1.0000
  C   C24       1.0  0.98285  0.25971  0.68798  1.0000
  C   C25       1.0  0.33788  0.57340  0.72564  1.0000
  C   C26       1.0  0.84784  0.61284  0.27441  1.0000
  C   C27       1.0  0.82341  0.08790  0.22565  1.0000
  C   C28       1.0  0.86283  0.59783  0.77442  1.0000
  C   C29       1.0  0.25136  0.69751  0.69356  1.0000
  C   C30       1.0  0.00387  0.55824  0.30656  1.0000
  C   C31       1.0  0.94753  0.00139  0.19356  1.0000
  C   C32       1.0  0.80822  0.75387  0.80656  1.0000
  C   C33       1.0  0.21620  0.85138  0.73548  1.0000
  C   C34       1.0  0.11601  0.48132  0.26469  1.0000
  C   C35       1.0  0.10140  0.96622  0.23549  1.0000
  C   C36       1.0  0.73129  0.86601  0.76469  1.0000
  C   C37       1.0  0.64470  0.28056  0.87208  1.0000
  C   C38       1.0  0.40814  0.77223  0.12785  1.0000
  C   C39       1.0  0.53055  0.39467  0.37209  1.0000
  C   C40       1.0  0.02223  0.15813  0.62785  1.0000
  C   C41       1.0  0.26926  0.87472  0.80806  1.0000
  C   C42       1.0  0.06708  0.46204  0.19212  1.0000
  C   C43       1.0  0.12473  0.01928  0.30806  1.0000
  C   C44       1.0  0.71201  0.81705  0.69212  1.0000
  N   N1        1.0  0.54363  0.53209  0.90704  1.0000
  N   N2        1.0  0.62517  0.63691  0.09297  1.0000
  N   N3        1.0  0.78207  0.29361  0.40705  1.0000
  N   N4        1.0  0.88690  0.37515  0.59298  1.0000
  N   N5        1.0  0.64253  0.40873  0.92884  1.0000
  N   N6        1.0  0.47970  0.71351  0.07112  1.0000
  N   N7        1.0  0.65871  0.39250  0.42885  1.0000
  N   N8        1.0  0.96350  0.22968  0.57112  1.0000
  N   N9        1.0  0.26897  0.02759  0.99095  1.0000
  N   N10       1.0  0.03585  0.27852  0.00885  1.0000
  N   N11       1.0  0.27758  0.01896  0.49096  1.0000
  N   N12       1.0  0.52850  0.78582  0.50885  1.0000
  N   N13       1.0  0.35135  0.75529  0.83927  1.0000
  N   N14       1.0  0.91645  0.51287  0.16083  1.0000
  N   N15       1.0  0.00529  0.10135  0.33927  1.0000
  N   N16       1.0  0.76284  0.66643  0.66084  1.0000
  O   O1        1.0  0.11639  0.67473  0.95161  1.0000
  O   O2        1.0  0.72260  0.16511  0.04841  1.0000
  O   O3        1.0  0.92473  0.86638  0.45162  1.0000
  O   O4        1.0  0.41509  0.47256  0.54841  1.0000
  O   O5        1.0  0.97106  0.75291  0.04077  1.0000
  O   O6        1.0  0.71141  0.93070  0.95915  1.0000
  O   O7        1.0  0.00289  0.72104  0.54077  1.0000
  O   O8        1.0  0.18068  0.46140  0.45916  1.0000
