data_image0
_chemical_formula_structural       Cd2H32C44N4O8
_chemical_formula_sum              "Cd2 H32 C44 N4 O8"
_cell_length_a       10.17
_cell_length_b       10.0426
_cell_length_c       11.5853
_cell_angle_alpha    71.9063
_cell_angle_beta     88.6328
_cell_angle_gamma    64.8164

_space_group_name_H-M_alt    "P 1"
_space_group_IT_number       1

loop_
  _space_group_symop_operation_xyz
  'x, y, z'

loop_
  _atom_site_type_symbol
  _atom_site_label
  _atom_site_symmetry_multiplicity
  _atom_site_fract_x
  _atom_site_fract_y
  _atom_site_fract_z
  _atom_site_occupancy
  Cd  Cd1       1.0  0.15178  0.39115  0.42728  1.0000
  Cd  Cd2       1.0  0.84820  0.60887  0.57275  1.0000
  H   H1        1.0  0.15813  0.28139  0.72641  1.0000
  H   H2        1.0  0.84186  0.71863  0.27360  1.0000
  H   H3        1.0  0.24675  0.03694  0.90781  1.0000
  H   H4        1.0  0.75326  0.96306  0.09221  1.0000
  H   H5        1.0  0.38806  0.77896  0.87626  1.0000
  H   H6        1.0  0.61194  0.22104  0.12375  1.0000
  H   H7        1.0  0.49421  0.63068  0.72887  1.0000
  H   H8        1.0  0.50579  0.36931  0.27115  1.0000
  H   H9        1.0  0.51947  0.63287  0.51642  1.0000
  H   H10       1.0  0.48053  0.36713  0.48359  1.0000
  H   H11       1.0  0.47408  0.78004  0.29470  1.0000
  H   H12       1.0  0.52594  0.21996  0.70532  1.0000
  H   H13       1.0  0.35717  0.04073  0.12405  1.0000
  H   H14       1.0  0.64284  0.95927  0.87595  1.0000
  H   H15       1.0  0.22211  0.28325  0.17913  1.0000
  H   H16       1.0  0.77789  0.71677  0.82088  1.0000
  H   H17       1.0  0.23330  0.66287  0.72652  1.0000
  H   H18       1.0  0.76671  0.33720  0.27343  1.0000
  H   H19       1.0  0.06132  0.65755  0.73168  1.0000
  H   H20       1.0  0.93870  0.34251  0.26830  1.0000
  H   H21       1.0  0.11128  0.78482  0.41340  1.0000
  H   H22       1.0  0.88869  0.21522  0.58656  1.0000
  H   H23       1.0  0.00808  0.94410  0.72350  1.0000
  H   H24       1.0  0.99189  0.05595  0.27646  1.0000
  H   H25       1.0  0.29643  0.63693  0.07163  1.0000
  H   H26       1.0  0.70361  0.36298  0.92838  1.0000
  H   H27       1.0  0.15451  0.62168  0.99595  1.0000
  H   H28       1.0  0.84553  0.37822  0.00407  1.0000
  H   H29       1.0  0.93891  0.84911  0.89491  1.0000
  H   H30       1.0  0.06112  0.15080  0.10507  1.0000
  H   H31       1.0  0.21134  0.86424  0.16368  1.0000
  H   H32       1.0  0.78869  0.13569  0.83631  1.0000
  C   C1        1.0  0.21817  0.16740  0.71549  1.0000
  C   C2        1.0  0.78181  0.83261  0.28454  1.0000
  C   C3        1.0  0.26961  0.02973  0.81712  1.0000
  C   C4        1.0  0.73039  0.97028  0.18291  1.0000
  C   C5        1.0  0.34622  0.88801  0.79914  1.0000
  C   C6        1.0  0.65378  0.11200  0.20088  1.0000
  C   C7        1.0  0.36929  0.88314  0.67949  1.0000
  C   C8        1.0  0.63071  0.11687  0.32052  1.0000
  C   C9        1.0  0.44606  0.74108  0.65356  1.0000
  C   C10       1.0  0.55393  0.25891  0.34646  1.0000
  C   C11       1.0  0.46102  0.74130  0.53607  1.0000
  C   C12       1.0  0.53899  0.25870  0.46395  1.0000
  C   C13       1.0  0.40049  0.88459  0.43551  1.0000
  C   C14       1.0  0.59952  0.11541  0.56451  1.0000
  C   C15       1.0  0.41310  0.88945  0.31269  1.0000
  C   C16       1.0  0.58690  0.11054  0.68734  1.0000
  C   C17       1.0  0.35040  0.03211  0.21993  1.0000
  C   C18       1.0  0.64960  0.96788  0.78008  1.0000
  C   C19       1.0  0.27563  0.16877  0.24975  1.0000
  C   C20       1.0  0.72435  0.83123  0.75026  1.0000
  C   C21       1.0  0.32489  0.02884  0.45730  1.0000
  C   C22       1.0  0.67511  0.97117  0.54271  1.0000
  C   C23       1.0  0.31013  0.02819  0.58194  1.0000
  C   C24       1.0  0.68987  0.97181  0.41807  1.0000
  C   C25       1.0  0.19392  0.55144  0.61064  1.0000
  C   C26       1.0  0.80608  0.44859  0.38935  1.0000
  C   C27       1.0  0.13976  0.67802  0.66967  1.0000
  C   C28       1.0  0.86025  0.32203  0.33029  1.0000
  C   C29       1.0  0.06779  0.84287  0.57994  1.0000
  C   C30       1.0  0.93219  0.15718  0.42002  1.0000
  C   C31       1.0  0.06310  0.87805  0.45278  1.0000
  C   C32       1.0  0.93688  0.12199  0.54718  1.0000
  C   C33       1.0  0.00419  0.96766  0.62499  1.0000
  C   C34       1.0  0.99578  0.03240  0.37497  1.0000
  C   C35       1.0  0.15146  0.57413  0.18997  1.0000
  C   C36       1.0  0.84853  0.42586  0.81003  1.0000
  C   C37       1.0  0.17971  0.66318  0.06580  1.0000
  C   C38       1.0  0.82031  0.33676  0.93421  1.0000
  C   C39       1.0  0.08692  0.83682  0.03208  1.0000
  C   C40       1.0  0.91310  0.16312  0.96789  1.0000
  C   C41       1.0  0.96626  0.91543  0.94102  1.0000
  C   C42       1.0  0.03375  0.08452  0.05897  1.0000
  C   C43       1.0  0.11895  0.92376  0.09127  1.0000
  C   C44       1.0  0.88107  0.07619  0.90870  1.0000
  N   N1        1.0  0.23870  0.16582  0.60200  1.0000
  N   N2        1.0  0.76129  0.83418  0.39801  1.0000
  N   N3        1.0  0.26415  0.16704  0.36477  1.0000
  N   N4        1.0  0.73584  0.83295  0.63523  1.0000
  O   O1        1.0  0.32627  0.46276  0.61999  1.0000
  O   O2        1.0  0.67374  0.53730  0.37997  1.0000
  O   O3        1.0  0.09155  0.54473  0.54951  1.0000
  O   O4        1.0  0.90844  0.45527  0.45052  1.0000
  O   O5        1.0  0.04821  0.53475  0.19440  1.0000
  O   O6        1.0  0.95177  0.46525  0.80561  1.0000
  O   O7        1.0  0.23635  0.54361  0.28432  1.0000
  O   O8        1.0  0.76363  0.45638  0.71569  1.0000
