data_image0
_chemical_formula_structural       Cu2H14C12N14
_chemical_formula_sum              "Cu2 H14 C12 N14"
_cell_length_a       5.24014
_cell_length_b       9.50819
_cell_length_c       9.88347
_cell_angle_alpha    109.641
_cell_angle_beta     100.412
_cell_angle_gamma    94.7398

_space_group_name_H-M_alt    "P 1"
_space_group_IT_number       1

loop_
  _space_group_symop_operation_xyz
  'x, y, z'

loop_
  _atom_site_type_symbol
  _atom_site_label
  _atom_site_symmetry_multiplicity
  _atom_site_fract_x
  _atom_site_fract_y
  _atom_site_fract_z
  _atom_site_occupancy
  Cu  Cu1       1.0  0.22074  0.01172  0.14006  1.0000
  Cu  Cu2       1.0  0.77926  0.98829  0.85994  1.0000
  H   H1        1.0  0.20972  0.93024  0.40155  1.0000
  H   H2        1.0  0.79029  0.06977  0.59845  1.0000
  H   H3        1.0  0.43611  0.76072  0.51348  1.0000
  H   H4        1.0  0.56390  0.23927  0.48652  1.0000
  H   H5        1.0  0.74452  0.59000  0.12315  1.0000
  H   H6        1.0  0.25547  0.40999  0.87684  1.0000
  H   H7        1.0  0.50853  0.76754  0.02742  1.0000
  H   H8        1.0  0.49146  0.23247  0.97258  1.0000
  H   H9        1.0  0.88685  0.50563  0.32729  1.0000
  H   H10       1.0  0.11314  0.49436  0.67270  1.0000
  H   H11       1.0  0.60481  0.46827  0.39301  1.0000
  H   H12       1.0  0.39519  0.53173  0.60698  1.0000
  H   H13       1.0  0.85367  0.62202  0.50630  1.0000
  H   H14       1.0  0.14633  0.37797  0.49369  1.0000
  C   C1        1.0  0.33087  0.85310  0.34460  1.0000
  C   C2        1.0  0.66913  0.14690  0.65540  1.0000
  C   C3        1.0  0.45589  0.75800  0.40487  1.0000
  C   C4        1.0  0.54411  0.24200  0.59513  1.0000
  C   C5        1.0  0.61124  0.66124  0.32783  1.0000
  C   C6        1.0  0.38875  0.33876  0.67217  1.0000
  C   C7        1.0  0.62906  0.66383  0.18907  1.0000
  C   C8        1.0  0.37093  0.33617  0.81093  1.0000
  C   C9        1.0  0.49883  0.76175  0.13472  1.0000
  C   C10       1.0  0.50117  0.23825  0.86528  1.0000
  C   C11       1.0  0.74857  0.55878  0.39193  1.0000
  C   C12       1.0  0.25142  0.44122  0.60806  1.0000
  N   N1        1.0  0.35477  0.85618  0.21198  1.0000
  N   N2        1.0  0.64523  0.14382  0.78803  1.0000
  N   N3        1.0  0.05746  0.14106  0.03279  1.0000
  N   N4        1.0  0.94253  0.85894  0.96721  1.0000
  N   N5        1.0  0.08097  0.27799  0.08063  1.0000
  N   N6        1.0  0.91902  0.72201  0.91937  1.0000
  N   N7        1.0  0.10521  0.40917  0.12471  1.0000
  N   N8        1.0  0.89479  0.59084  0.87529  1.0000
  N   N9        1.0  0.55734  0.15615  0.21921  1.0000
  N   N10       1.0  0.44269  0.84385  0.78080  1.0000
  N   N11       1.0  0.76107  0.12079  0.26313  1.0000
  N   N12       1.0  0.23893  0.87921  0.73687  1.0000
  N   N13       1.0  0.96635  0.09140  0.30734  1.0000
  N   N14       1.0  0.03368  0.90859  0.69267  1.0000
