data_image0
_chemical_formula_structural       CdH24C18N14
_chemical_formula_sum              "Cd1 H24 C18 N14"
_cell_length_a       7.64842
_cell_length_b       8.83762
_cell_length_c       9.6171
_cell_angle_alpha    76.0788
_cell_angle_beta     77.1411
_cell_angle_gamma    65.9302

_space_group_name_H-M_alt    "P 1"
_space_group_IT_number       1

loop_
  _space_group_symop_operation_xyz
  'x, y, z'

loop_
  _atom_site_type_symbol
  _atom_site_label
  _atom_site_symmetry_multiplicity
  _atom_site_fract_x
  _atom_site_fract_y
  _atom_site_fract_z
  _atom_site_occupancy
  Cd  Cd1       1.0  1.00000  0.50000  0.00000  1.0000
  H   H1        1.0  0.15844  0.08031  0.14395  1.0000
  H   H2        1.0  0.84156  0.91969  0.85605  1.0000
  H   H3        1.0  0.16041  0.89345  0.10345  1.0000
  H   H4        1.0  0.83958  0.10655  0.89655  1.0000
  H   H5        1.0  0.95554  0.97539  0.33619  1.0000
  H   H6        1.0  0.04446  0.02461  0.66381  1.0000
  H   H7        1.0  0.16336  0.94657  0.40776  1.0000
  H   H8        1.0  0.83664  0.05343  0.59223  1.0000
  H   H9        1.0  0.47522  0.66256  0.05551  1.0000
  H   H10       1.0  0.52478  0.33744  0.94448  1.0000
  H   H11       1.0  0.47740  0.04596  0.24734  1.0000
  H   H12       1.0  0.52259  0.95404  0.75266  1.0000
  H   H13       1.0  0.85570  0.84325  0.15819  1.0000
  H   H14       1.0  0.14429  0.15675  0.84180  1.0000
  H   H15       1.0  0.11749  0.66675  0.29705  1.0000
  H   H16       1.0  0.88251  0.33325  0.70295  1.0000
  H   H17       1.0  0.30341  0.64209  0.39111  1.0000
  H   H18       1.0  0.69659  0.35791  0.60889  1.0000
  H   H19       1.0  0.75073  0.77902  0.45501  1.0000
  H   H20       1.0  0.24927  0.22099  0.54499  1.0000
  H   H21       1.0  0.65325  0.67737  0.74770  1.0000
  H   H22       1.0  0.34675  0.32263  0.25230  1.0000
  H   H23       1.0  0.25520  0.56599  0.65749  1.0000
  H   H24       1.0  0.74480  0.43401  0.34251  1.0000
  C   C1        1.0  0.20458  0.94378  0.17799  1.0000
  C   C2        1.0  0.79542  0.05622  0.82201  1.0000
  C   C3        1.0  0.11213  0.90283  0.33259  1.0000
  C   C4        1.0  0.88787  0.09717  0.66741  1.0000
  C   C5        1.0  0.53215  0.73645  0.09470  1.0000
  C   C6        1.0  0.46785  0.26355  0.90530  1.0000
  C   C7        1.0  0.53427  0.93511  0.19694  1.0000
  C   C8        1.0  0.46573  0.06489  0.80306  1.0000
  C   C9        1.0  0.72067  0.83377  0.15273  1.0000
  C   C10       1.0  0.27933  0.16624  0.84727  1.0000
  C   C11       1.0  0.15068  0.71545  0.37880  1.0000
  C   C12       1.0  0.84932  0.28455  0.62120  1.0000
  C   C13       1.0  0.83860  0.72145  0.54185  1.0000
  C   C14       1.0  0.16140  0.27855  0.45815  1.0000
  C   C15       1.0  0.79371  0.67038  0.68754  1.0000
  C   C16       1.0  0.20629  0.32961  0.31246  1.0000
  C   C17       1.0  0.10418  0.60795  0.64564  1.0000
  C   C18       1.0  0.89582  0.39205  0.35436  1.0000
  N   N1        1.0  0.71756  0.71071  0.08905  1.0000
  N   N2        1.0  0.28244  0.28929  0.91095  1.0000
  N   N3        1.0  0.41629  0.87224  0.15894  1.0000
  N   N4        1.0  0.58372  0.12776  0.84106  1.0000
  N   N5        1.0  0.96063  0.60024  0.75129  1.0000
  N   N6        1.0  0.03937  0.39976  0.24871  1.0000
  N   N7        1.0  0.74632  0.27651  0.12901  1.0000
  N   N8        1.0  0.25368  0.72349  0.87099  1.0000
  N   N9        1.0  0.03654  0.68055  0.51702  1.0000
  N   N10       1.0  0.96346  0.31945  0.48298  1.0000
  N   N11       1.0  0.81374  0.33281  0.01338  1.0000
  N   N12       1.0  0.18626  0.66719  0.98663  1.0000
  N   N13       1.0  0.67789  0.22029  0.24136  1.0000
  N   N14       1.0  0.32211  0.77971  0.75864  1.0000
