data_image0
_chemical_formula_structural       Na4H32C32O16
_chemical_formula_sum              "Na4 H32 C32 O16"
_cell_length_a       5.86155
_cell_length_b       8.02323
_cell_length_c       16.3093
_cell_angle_alpha    89.9992
_cell_angle_beta     97.3182
_cell_angle_gamma    90

_space_group_name_H-M_alt    "P 1"
_space_group_IT_number       1

loop_
  _space_group_symop_operation_xyz
  'x, y, z'

loop_
  _atom_site_type_symbol
  _atom_site_label
  _atom_site_symmetry_multiplicity
  _atom_site_fract_x
  _atom_site_fract_y
  _atom_site_fract_z
  _atom_site_occupancy
  Na  Na1       1.0  0.60379  0.08944  0.59139  1.0000
  Na  Na2       1.0  0.89622  0.58944  0.40860  1.0000
  Na  Na3       1.0  0.39621  0.91056  0.40861  1.0000
  Na  Na4       1.0  0.10379  0.41056  0.59139  1.0000
  H   H1        1.0  0.64070  0.56543  0.77351  1.0000
  H   H2        1.0  0.85931  0.06546  0.22650  1.0000
  H   H3        1.0  0.35932  0.43456  0.22649  1.0000
  H   H4        1.0  0.14068  0.93454  0.77351  1.0000
  H   H5        1.0  0.46784  0.70704  0.70647  1.0000
  H   H6        1.0  0.03216  0.20706  0.29353  1.0000
  H   H7        1.0  0.53218  0.29295  0.29353  1.0000
  H   H8        1.0  0.96782  0.79294  0.70647  1.0000
  H   H9        1.0  0.48118  0.67037  0.86586  1.0000
  H   H10       1.0  0.01883  0.17042  0.13414  1.0000
  H   H11       1.0  0.51881  0.32962  0.13414  1.0000
  H   H12       1.0  0.98119  0.82963  0.86587  1.0000
  H   H13       1.0  0.33037  0.66912  0.99658  1.0000
  H   H14       1.0  0.16963  0.16915  0.00342  1.0000
  H   H15       1.0  0.66961  0.33088  0.00341  1.0000
  H   H16       1.0  0.83039  0.83089  0.99660  1.0000
  H   H17       1.0  0.79385  0.32797  0.89790  1.0000
  H   H18       1.0  0.70613  0.82799  0.10211  1.0000
  H   H19       1.0  0.20618  0.67199  0.10210  1.0000
  H   H20       1.0  0.29382  0.17199  0.89789  1.0000
  H   H21       1.0  0.95381  0.32277  0.76661  1.0000
  H   H22       1.0  0.54619  0.82279  0.23340  1.0000
  H   H23       1.0  0.04622  0.67721  0.23339  1.0000
  H   H24       1.0  0.45377  0.17719  0.76660  1.0000
  H   H25       1.0  0.74680  0.75201  0.55847  1.0000
  H   H26       1.0  0.75320  0.25201  0.44153  1.0000
  H   H27       1.0  0.25320  0.24800  0.44153  1.0000
  H   H28       1.0  0.24680  0.74800  0.55847  1.0000
  H   H29       1.0  0.82449  0.86051  0.48439  1.0000
  H   H30       1.0  0.67551  0.36051  0.51561  1.0000
  H   H31       1.0  0.17551  0.13950  0.51561  1.0000
  H   H32       1.0  0.32449  0.63950  0.48439  1.0000
  C   C1        1.0  0.61882  0.50333  0.64625  1.0000
  C   C2        1.0  0.88117  0.00335  0.35375  1.0000
  C   C3        1.0  0.38117  0.49665  0.35374  1.0000
  C   C4        1.0  0.11880  0.99667  0.64625  1.0000
  C   C5        1.0  0.51080  0.57485  0.71873  1.0000
  C   C6        1.0  0.98921  0.07487  0.28128  1.0000
  C   C7        1.0  0.48922  0.42514  0.28127  1.0000
  C   C8        1.0  0.01078  0.92513  0.71873  1.0000
  C   C9        1.0  0.22816  0.49587  0.80631  1.0000
  C   C10       1.0  0.27185  0.99591  0.19370  1.0000
  C   C11       1.0  0.77186  0.50412  0.19369  1.0000
  C   C12       1.0  0.72815  0.00411  0.80631  1.0000
  C   C13       1.0  0.33160  0.59331  0.87189  1.0000
  C   C14       1.0  0.16842  0.09333  0.12811  1.0000
  C   C15       1.0  0.66840  0.40669  0.12810  1.0000
  C   C16       1.0  0.83160  0.90670  0.87190  1.0000
  C   C17       1.0  0.24259  0.59253  0.94727  1.0000
  C   C18       1.0  0.25740  0.09256  0.05273  1.0000
  C   C19       1.0  0.75740  0.40746  0.05273  1.0000
  C   C20       1.0  0.74259  0.90747  0.94727  1.0000
  C   C21       1.0  0.04716  0.49932  0.95998  1.0000
  C   C22       1.0  0.45283  0.99934  0.04003  1.0000
  C   C23       1.0  0.95285  0.50067  0.04002  1.0000
  C   C24       1.0  0.54715  0.00067  0.95998  1.0000
  C   C25       1.0  0.94506  0.40397  0.89233  1.0000
  C   C26       1.0  0.55493  0.90398  0.10767  1.0000
  C   C27       1.0  0.05495  0.59601  0.10767  1.0000
  C   C28       1.0  0.44504  0.09601  0.89233  1.0000
  C   C29       1.0  0.03331  0.40084  0.81713  1.0000
  C   C30       1.0  0.46669  0.90086  0.18287  1.0000
  C   C31       1.0  0.96671  0.59914  0.18286  1.0000
  C   C32       1.0  0.53329  0.09914  0.81713  1.0000
  O   O1        1.0  0.79423  0.58139  0.62814  1.0000
  O   O2        1.0  0.70578  0.08138  0.37187  1.0000
  O   O3        1.0  0.20580  0.41862  0.37186  1.0000
  O   O4        1.0  0.29422  0.91861  0.62814  1.0000
  O   O5        1.0  0.53383  0.37306  0.61021  1.0000
  O   O6        1.0  0.96619  0.87305  0.38979  1.0000
  O   O7        1.0  0.46620  0.62697  0.38979  1.0000
  O   O8        1.0  0.03381  0.12694  0.61021  1.0000
  O   O9        1.0  0.70795  0.85104  0.52320  1.0000
  O   O10       1.0  0.79205  0.35104  0.47680  1.0000
  O   O11       1.0  0.29204  0.14897  0.47680  1.0000
  O   O12       1.0  0.20796  0.64897  0.52320  1.0000
  O   O13       1.0  0.30682  0.48334  0.73085  1.0000
  O   O14       1.0  0.19319  0.98337  0.26915  1.0000
  O   O15       1.0  0.69320  0.51665  0.26915  1.0000
  O   O16       1.0  0.80680  0.01664  0.73085  1.0000
