data_image0
_chemical_formula_structural       K4H24C32O12
_chemical_formula_sum              "K4 H24 C32 O12"
_cell_length_a       6.52258
_cell_length_b       6.96342
_cell_length_c       16.4531
_cell_angle_alpha    90.0001
_cell_angle_beta     95.8214
_cell_angle_gamma    89.9998

_space_group_name_H-M_alt    "P 1"
_space_group_IT_number       1

loop_
  _space_group_symop_operation_xyz
  'x, y, z'

loop_
  _atom_site_type_symbol
  _atom_site_label
  _atom_site_symmetry_multiplicity
  _atom_site_fract_x
  _atom_site_fract_y
  _atom_site_fract_z
  _atom_site_occupancy
  K   K1        1.0  0.77994  0.51901  0.56954  1.0000
  K   K2        1.0  0.72006  0.01901  0.43046  1.0000
  K   K3        1.0  0.22006  0.48099  0.43046  1.0000
  K   K4        1.0  0.27995  0.98099  0.56954  1.0000
  H   H1        1.0  0.30503  0.48057  0.75631  1.0000
  H   H2        1.0  0.19496  0.98057  0.24369  1.0000
  H   H3        1.0  0.69496  0.51943  0.24369  1.0000
  H   H4        1.0  0.80504  0.01943  0.75631  1.0000
  H   H5        1.0  0.42558  0.27125  0.72033  1.0000
  H   H6        1.0  0.07442  0.77125  0.27967  1.0000
  H   H7        1.0  0.57442  0.72875  0.27967  1.0000
  H   H8        1.0  0.92558  0.22875  0.72033  1.0000
  H   H9        1.0  0.47608  0.35046  0.86370  1.0000
  H   H10       1.0  0.02393  0.85046  0.13630  1.0000
  H   H11       1.0  0.52392  0.64954  0.13630  1.0000
  H   H12       1.0  0.97608  0.14954  0.86370  1.0000
  H   H13       1.0  0.67292  0.35097  0.99654  1.0000
  H   H14       1.0  0.82709  0.85097  0.00346  1.0000
  H   H15       1.0  0.32708  0.64904  0.00346  1.0000
  H   H16       1.0  0.17291  0.14903  0.99654  1.0000
  H   H17       1.0  0.16911  0.65211  0.89642  1.0000
  H   H18       1.0  0.33089  0.15210  0.10358  1.0000
  H   H19       1.0  0.83089  0.34790  0.10358  1.0000
  H   H20       1.0  0.66911  0.84789  0.89642  1.0000
  H   H21       1.0  0.96647  0.65744  0.76272  1.0000
  H   H22       1.0  0.53352  0.15743  0.23728  1.0000
  H   H23       1.0  0.03353  0.34256  0.23728  1.0000
  H   H24       1.0  0.46647  0.84256  0.76272  1.0000
  C   C1        1.0  0.30995  0.47112  0.62592  1.0000
  C   C2        1.0  0.19005  0.97112  0.37408  1.0000
  C   C3        1.0  0.69005  0.52888  0.37408  1.0000
  C   C4        1.0  0.80995  0.02887  0.62592  1.0000
  C   C5        1.0  0.40885  0.42731  0.71235  1.0000
  C   C6        1.0  0.09115  0.92730  0.28765  1.0000
  C   C7        1.0  0.59115  0.57269  0.28765  1.0000
  C   C8        1.0  0.90885  0.07270  0.71235  1.0000
  C   C9        1.0  0.70802  0.50444  0.80333  1.0000
  C   C10       1.0  0.79198  0.00443  0.19666  1.0000
  C   C11       1.0  0.29198  0.49557  0.19667  1.0000
  C   C12       1.0  0.20802  0.99556  0.80333  1.0000
  C   C13       1.0  0.62740  0.41783  0.86994  1.0000
  C   C14       1.0  0.87260  0.91783  0.13007  1.0000
  C   C15       1.0  0.37260  0.58217  0.13006  1.0000
  C   C16       1.0  0.12740  0.08217  0.86993  1.0000
  C   C17       1.0  0.74210  0.41862  0.94633  1.0000
  C   C18       1.0  0.75790  0.91862  0.05366  1.0000
  C   C19       1.0  0.25790  0.58138  0.05367  1.0000
  C   C20       1.0  0.24210  0.08138  0.94633  1.0000
  C   C21       1.0  0.93968  0.50090  0.95932  1.0000
  C   C22       1.0  0.56032  0.00090  0.04069  1.0000
  C   C23       1.0  0.06032  0.49911  0.04068  1.0000
  C   C24       1.0  0.43968  0.99911  0.95931  1.0000
  C   C25       1.0  0.01742  0.58525  0.89074  1.0000
  C   C26       1.0  0.48258  0.08525  0.10926  1.0000
  C   C27       1.0  0.98259  0.41475  0.10926  1.0000
  C   C28       1.0  0.51742  0.91475  0.89074  1.0000
  C   C29       1.0  0.90460  0.58790  0.81442  1.0000
  C   C30       1.0  0.59540  0.08790  0.18558  1.0000
  C   C31       1.0  0.09540  0.41210  0.18558  1.0000
  C   C32       1.0  0.40460  0.91210  0.81442  1.0000
  O   O1        1.0  0.15856  0.36424  0.60100  1.0000
  O   O2        1.0  0.34144  0.86424  0.39900  1.0000
  O   O3        1.0  0.84144  0.63576  0.39900  1.0000
  O   O4        1.0  0.65856  0.13576  0.60100  1.0000
  O   O5        1.0  0.38066  0.60796  0.58635  1.0000
  O   O6        1.0  0.11934  0.10796  0.41365  1.0000
  O   O7        1.0  0.61934  0.39204  0.41365  1.0000
  O   O8        1.0  0.88066  0.89204  0.58635  1.0000
  O   O9        1.0  0.60658  0.51833  0.72636  1.0000
  O   O10       1.0  0.89342  0.01833  0.27364  1.0000
  O   O11       1.0  0.39342  0.48167  0.27364  1.0000
  O   O12       1.0  0.10658  0.98167  0.72636  1.0000
