data_image0
_chemical_formula_structural       Cd2H28C48N4O8
_chemical_formula_sum              "Cd2 H28 C48 N4 O8"
_cell_length_a       7.21186
_cell_length_b       11.7074
_cell_length_c       12.5677
_cell_angle_alpha    117.751
_cell_angle_beta     97.9571
_cell_angle_gamma    90.0172

_space_group_name_H-M_alt    "P 1"
_space_group_IT_number       1

loop_
  _space_group_symop_operation_xyz
  'x, y, z'

loop_
  _atom_site_type_symbol
  _atom_site_label
  _atom_site_symmetry_multiplicity
  _atom_site_fract_x
  _atom_site_fract_y
  _atom_site_fract_z
  _atom_site_occupancy
  Cd  Cd1       1.0  0.25006  0.61372  0.00006  1.0000
  Cd  Cd2       1.0  0.74994  0.38628  0.99994  1.0000
  H   H1        1.0  0.98268  0.56875  0.74581  1.0000
  H   H2        1.0  0.51748  0.82309  0.25455  1.0000
  H   H3        1.0  0.01733  0.43125  0.25420  1.0000
  H   H4        1.0  0.48252  0.17691  0.74546  1.0000
  H   H5        1.0  0.87062  0.69066  0.63118  1.0000
  H   H6        1.0  0.63003  0.05958  0.36906  1.0000
  H   H7        1.0  0.12938  0.30934  0.36882  1.0000
  H   H8        1.0  0.36996  0.94042  0.63094  1.0000
  H   H9        1.0  0.97554  0.92678  0.72392  1.0000
  H   H10       1.0  0.52492  0.20303  0.27645  1.0000
  H   H11       1.0  0.02445  0.07322  0.27608  1.0000
  H   H12       1.0  0.47509  0.79697  0.72355  1.0000
  H   H13       1.0  0.14561  0.12645  0.90192  1.0000
  H   H14       1.0  0.35447  0.22483  0.09856  1.0000
  H   H15       1.0  0.85439  0.87355  0.09808  1.0000
  H   H16       1.0  0.64553  0.77517  0.90145  1.0000
  H   H17       1.0  0.78248  0.34034  0.64333  1.0000
  H   H18       1.0  0.71768  0.69686  0.35703  1.0000
  H   H19       1.0  0.21753  0.65966  0.35666  1.0000
  H   H20       1.0  0.28232  0.30314  0.64297  1.0000
  H   H21       1.0  0.78181  0.32760  0.44009  1.0000
  H   H22       1.0  0.71843  0.88745  0.56023  1.0000
  H   H23       1.0  0.21820  0.67240  0.55991  1.0000
  H   H24       1.0  0.28157  0.11255  0.43977  1.0000
  H   H25       1.0  0.35666  0.61086  0.71941  1.0000
  H   H26       1.0  0.14304  0.89140  0.28047  1.0000
  H   H27       1.0  0.64334  0.38914  0.28059  1.0000
  H   H28       1.0  0.85696  0.10859  0.71953  1.0000
  C   C1        1.0  0.02264  0.67155  0.78254  1.0000
  C   C2        1.0  0.47765  0.88918  0.21783  1.0000
  C   C3        1.0  0.97736  0.32845  0.21746  1.0000
  C   C4        1.0  0.52235  0.11082  0.78217  1.0000
  C   C5        1.0  0.96161  0.74029  0.71901  1.0000
  C   C6        1.0  0.53885  0.02142  0.28131  1.0000
  C   C7        1.0  0.03838  0.25971  0.28099  1.0000
  C   C8        1.0  0.46115  0.97858  0.71869  1.0000
  C   C9        1.0  0.01853  0.87022  0.77038  1.0000
  C   C10       1.0  0.48186  0.10002  0.23000  1.0000
  C   C11       1.0  0.98147  0.12978  0.22963  1.0000
  C   C12       1.0  0.51814  0.89998  0.77000  1.0000
  C   C13       1.0  0.13371  0.93197  0.88526  1.0000
  C   C14       1.0  0.36653  0.04694  0.11515  1.0000
  C   C15       1.0  0.86629  0.06803  0.11474  1.0000
  C   C16       1.0  0.63347  0.95307  0.88486  1.0000
  C   C17       1.0  0.18999  0.85405  0.94167  1.0000
  C   C18       1.0  0.31020  0.91260  0.05876  1.0000
  C   C19       1.0  0.81001  0.14595  0.05833  1.0000
  C   C20       1.0  0.68980  0.08740  0.94124  1.0000
  C   C21       1.0  0.19327  0.06702  0.94496  1.0000
  C   C22       1.0  0.30687  0.12234  0.05549  1.0000
  C   C23       1.0  0.80673  0.93298  0.05504  1.0000
  C   C24       1.0  0.69313  0.87766  0.94451  1.0000
  C   C25       1.0  0.57630  0.48869  0.81820  1.0000
  C   C26       1.0  0.92363  0.67049  0.18198  1.0000
  C   C27       1.0  0.42370  0.51130  0.18180  1.0000
  C   C28       1.0  0.07637  0.32951  0.81801  1.0000
  C   C29       1.0  0.57044  0.47889  0.69373  1.0000
  C   C30       1.0  0.92964  0.78505  0.30650  1.0000
  C   C31       1.0  0.42956  0.52111  0.30627  1.0000
  C   C32       1.0  0.07036  0.21495  0.69350  1.0000
  C   C33       1.0  0.68901  0.39624  0.61325  1.0000
  C   C34       1.0  0.81119  0.78283  0.38706  1.0000
  C   C35       1.0  0.31099  0.60376  0.38675  1.0000
  C   C36       1.0  0.18881  0.21717  0.61294  1.0000
  C   C37       1.0  0.68689  0.38857  0.50037  1.0000
  C   C38       1.0  0.81332  0.88813  0.49988  1.0000
  C   C39       1.0  0.31312  0.61143  0.49963  1.0000
  C   C40       1.0  0.18668  0.11187  0.50012  1.0000
  C   C41       1.0  0.56177  0.45939  0.45998  1.0000
  C   C42       1.0  0.93834  0.99937  0.54007  1.0000
  C   C43       1.0  0.43824  0.54061  0.54002  1.0000
  C   C44       1.0  0.06166  0.00062  0.45993  1.0000
  C   C45       1.0  0.44801  0.54915  0.65688  1.0000
  C   C46       1.0  0.05194  0.89222  0.34315  1.0000
  C   C47       1.0  0.55200  0.45085  0.34312  1.0000
  C   C48       1.0  0.94806  0.10777  0.65685  1.0000
  N   N1        1.0  0.13439  0.72672  0.88956  1.0000
  N   N2        1.0  0.36578  0.83738  0.11086  1.0000
  N   N3        1.0  0.86561  0.27328  0.11044  1.0000
  N   N4        1.0  0.63422  0.16262  0.88914  1.0000
  O   O1        1.0  0.52223  0.58925  0.90120  1.0000
  O   O2        1.0  0.97795  0.68808  0.09903  1.0000
  O   O3        1.0  0.47777  0.41075  0.09880  1.0000
  O   O4        1.0  0.02205  0.31191  0.90097  1.0000
  O   O5        1.0  0.63823  0.39080  0.82747  1.0000
  O   O6        1.0  0.86137  0.56332  0.17257  1.0000
  O   O7        1.0  0.36177  0.60919  0.17253  1.0000
  O   O8        1.0  0.13863  0.43668  0.82743  1.0000
