data_image0
_chemical_formula_structural       Li4H40C32O20
_chemical_formula_sum              "Li4 H40 C32 O20"
_cell_length_a       6.35484
_cell_length_b       7.94822
_cell_length_c       17.1742
_cell_angle_alpha    89.9998
_cell_angle_beta     95.8458
_cell_angle_gamma    90

_space_group_name_H-M_alt    "P 1"
_space_group_IT_number       1

loop_
  _space_group_symop_operation_xyz
  'x, y, z'

loop_
  _atom_site_type_symbol
  _atom_site_label
  _atom_site_symmetry_multiplicity
  _atom_site_fract_x
  _atom_site_fract_y
  _atom_site_fract_z
  _atom_site_occupancy
  Li  Li1       1.0  0.54715  0.27086  0.54403  1.0000
  Li  Li2       1.0  0.95284  0.77086  0.45597  1.0000
  Li  Li3       1.0  0.45285  0.72914  0.45597  1.0000
  Li  Li4       1.0  0.04715  0.22914  0.54402  1.0000
  H   H1        1.0  0.00689  0.33012  0.77840  1.0000
  H   H2        1.0  0.49311  0.83013  0.22160  1.0000
  H   H3        1.0  0.99312  0.66988  0.22160  1.0000
  H   H4        1.0  0.50689  0.16988  0.77840  1.0000
  H   H5        1.0  0.31262  0.66482  0.00595  1.0000
  H   H6        1.0  0.18737  0.16482  0.99405  1.0000
  H   H7        1.0  0.68737  0.33518  0.99405  1.0000
  H   H8        1.0  0.81262  0.83517  0.00595  1.0000
  H   H9        1.0  0.48549  0.66468  0.88699  1.0000
  H   H10       1.0  0.01451  0.16468  0.11301  1.0000
  H   H11       1.0  0.51451  0.33533  0.11301  1.0000
  H   H12       1.0  0.98549  0.83532  0.88699  1.0000
  H   H13       1.0  0.82882  0.33207  0.89846  1.0000
  H   H14       1.0  0.67118  0.83208  0.10154  1.0000
  H   H15       1.0  0.17118  0.66793  0.10154  1.0000
  H   H16       1.0  0.32882  0.16793  0.89846  1.0000
  H   H17       1.0  0.65918  0.55114  0.79600  1.0000
  H   H18       1.0  0.84082  0.05115  0.20400  1.0000
  H   H19       1.0  0.34082  0.44886  0.20400  1.0000
  H   H20       1.0  0.15918  0.94886  0.79600  1.0000
  H   H21       1.0  0.50291  0.71456  0.74639  1.0000
  H   H22       1.0  0.99710  0.21457  0.25361  1.0000
  H   H23       1.0  0.49709  0.28544  0.25361  1.0000
  H   H24       1.0  0.00291  0.78544  0.74639  1.0000
  H   H25       1.0  0.72981  0.06423  0.63180  1.0000
  H   H26       1.0  0.77019  0.56423  0.36820  1.0000
  H   H27       1.0  0.27019  0.93576  0.36820  1.0000
  H   H28       1.0  0.22981  0.43576  0.63180  1.0000
  H   H29       1.0  0.48600  0.00128  0.62388  1.0000
  H   H30       1.0  0.01400  0.50128  0.37612  1.0000
  H   H31       1.0  0.51400  0.99872  0.37612  1.0000
  H   H32       1.0  0.98600  0.49871  0.62388  1.0000
  H   H33       1.0  0.81940  0.38958  0.45433  1.0000
  H   H34       1.0  0.68060  0.88958  0.54567  1.0000
  H   H35       1.0  0.18060  0.61042  0.54567  1.0000
  H   H36       1.0  0.31940  0.11042  0.45433  1.0000
  H   H37       1.0  0.74930  0.20562  0.43087  1.0000
  H   H38       1.0  0.75070  0.70562  0.56913  1.0000
  H   H39       1.0  0.25070  0.79438  0.56913  1.0000
  H   H40       1.0  0.24930  0.29437  0.43087  1.0000
  C   C1        1.0  0.05343  0.49952  0.96362  1.0000
  C   C2        1.0  0.44657  0.99951  0.03638  1.0000
  C   C3        1.0  0.94657  0.50049  0.03638  1.0000
  C   C4        1.0  0.55343  0.00049  0.96362  1.0000
  C   C5        1.0  0.07130  0.40454  0.82865  1.0000
  C   C6        1.0  0.42870  0.90454  0.17136  1.0000
  C   C7        1.0  0.92870  0.59546  0.17136  1.0000
  C   C8        1.0  0.57130  0.09546  0.82864  1.0000
  C   C9        1.0  0.62317  0.53161  0.67128  1.0000
  C   C10       1.0  0.87683  0.03161  0.32872  1.0000
  C   C11       1.0  0.37683  0.46839  0.32872  1.0000
  C   C12       1.0  0.12317  0.96839  0.67128  1.0000
  C   C13       1.0  0.24052  0.59050  0.95707  1.0000
  C   C14       1.0  0.25947  0.09050  0.04293  1.0000
  C   C15       1.0  0.75947  0.40950  0.04293  1.0000
  C   C16       1.0  0.74052  0.90950  0.95707  1.0000
  C   C17       1.0  0.34172  0.59096  0.88863  1.0000
  C   C18       1.0  0.15828  0.09095  0.11137  1.0000
  C   C19       1.0  0.65828  0.40905  0.11137  1.0000
  C   C20       1.0  0.84172  0.90905  0.88863  1.0000
  C   C21       1.0  0.97225  0.40663  0.89716  1.0000
  C   C22       1.0  0.52775  0.90663  0.10284  1.0000
  C   C23       1.0  0.02775  0.59337  0.10285  1.0000
  C   C24       1.0  0.47225  0.09337  0.89715  1.0000
  C   C25       1.0  0.25787  0.49679  0.82399  1.0000
  C   C26       1.0  0.24213  0.99680  0.17601  1.0000
  C   C27       1.0  0.74214  0.50320  0.17601  1.0000
  C   C28       1.0  0.75787  0.00321  0.82399  1.0000
  C   C29       1.0  0.53666  0.57856  0.74761  1.0000
  C   C30       1.0  0.96334  0.07857  0.25239  1.0000
  C   C31       1.0  0.46334  0.42144  0.25239  1.0000
  C   C32       1.0  0.03666  0.92144  0.74761  1.0000
  O   O1        1.0  0.79394  0.60709  0.65847  1.0000
  O   O2        1.0  0.70606  0.10710  0.34153  1.0000
  O   O3        1.0  0.20606  0.39290  0.34153  1.0000
  O   O4        1.0  0.29394  0.89290  0.65847  1.0000
  O   O5        1.0  0.78117  0.27901  0.47784  1.0000
  O   O6        1.0  0.71883  0.77901  0.52216  1.0000
  O   O7        1.0  0.21883  0.72099  0.52216  1.0000
  O   O8        1.0  0.28117  0.22099  0.47784  1.0000
  O   O9        1.0  0.34780  0.48454  0.75506  1.0000
  O   O10       1.0  0.15220  0.98454  0.24494  1.0000
  O   O11       1.0  0.65220  0.51546  0.24494  1.0000
  O   O12       1.0  0.84780  0.01546  0.75506  1.0000
  O   O13       1.0  0.59960  0.05354  0.59525  1.0000
  O   O14       1.0  0.90040  0.55354  0.40475  1.0000
  O   O15       1.0  0.40040  0.94646  0.40475  1.0000
  O   O16       1.0  0.09960  0.44646  0.59525  1.0000
  O   O17       1.0  0.52458  0.42679  0.62616  1.0000
  O   O18       1.0  0.97542  0.92679  0.37383  1.0000
  O   O19       1.0  0.47542  0.57320  0.37384  1.0000
  O   O20       1.0  0.02458  0.07320  0.62616  1.0000
