data_image0
_chemical_formula_structural       Zn4H24C34N8O20
_chemical_formula_sum              "Zn4 H24 C34 N8 O20"
_cell_length_a       7.78359
_cell_length_b       9.89512
_cell_length_c       13.2901
_cell_angle_alpha    82.6212
_cell_angle_beta     86.6781
_cell_angle_gamma    68.9565

_space_group_name_H-M_alt    "P 1"
_space_group_IT_number       1

loop_
  _space_group_symop_operation_xyz
  'x, y, z'

loop_
  _atom_site_type_symbol
  _atom_site_label
  _atom_site_symmetry_multiplicity
  _atom_site_fract_x
  _atom_site_fract_y
  _atom_site_fract_z
  _atom_site_occupancy
  Zn  Zn1       1.0  0.20088  0.85326  0.50175  1.0000
  Zn  Zn2       1.0  0.79912  0.14674  0.49825  1.0000
  Zn  Zn3       1.0  0.75914  0.31854  0.06007  1.0000
  Zn  Zn4       1.0  0.24086  0.68146  0.93993  1.0000
  H   H1        1.0  0.77728  0.60037  0.48664  1.0000
  H   H2        1.0  0.22273  0.39963  0.51336  1.0000
  H   H3        1.0  0.02978  0.44633  0.20640  1.0000
  H   H4        1.0  0.97022  0.55366  0.79360  1.0000
  H   H5        1.0  0.59300  0.76589  0.10287  1.0000
  H   H6        1.0  0.40700  0.23411  0.89713  1.0000
  H   H7        1.0  0.35942  0.60973  0.37428  1.0000
  H   H8        1.0  0.64058  0.39027  0.62571  1.0000
  H   H9        1.0  0.94597  0.88461  0.26282  1.0000
  H   H10       1.0  0.05402  0.11539  0.73718  1.0000
  H   H11       1.0  0.29596  0.04827  0.32815  1.0000
  H   H12       1.0  0.70404  0.95173  0.67184  1.0000
  H   H13       1.0  0.76660  0.98267  0.11584  1.0000
  H   H14       1.0  0.23339  0.01733  0.88415  1.0000
  H   H15       1.0  0.31775  0.38439  0.07413  1.0000
  H   H16       1.0  0.68225  0.61562  0.92588  1.0000
  H   H17       1.0  0.08581  0.18247  0.13577  1.0000
  H   H18       1.0  0.91419  0.81754  0.86424  1.0000
  H   H19       1.0  0.94543  0.22670  0.22678  1.0000
  H   H20       1.0  0.05457  0.77330  0.77323  1.0000
  H   H21       1.0  0.45549  0.71086  0.64438  1.0000
  H   H22       1.0  0.54451  0.28915  0.35561  1.0000
  H   H23       1.0  0.53772  0.81413  0.56423  1.0000
  H   H24       1.0  0.46229  0.18587  0.43577  1.0000
  C   C1        1.0  0.98719  0.67108  0.22143  1.0000
  C   C2        1.0  0.01281  0.32892  0.77857  1.0000
  C   C3        1.0  0.85752  0.75462  0.38258  1.0000
  C   C4        1.0  0.14248  0.24538  0.61743  1.0000
  C   C5        1.0  0.83661  0.62084  0.41266  1.0000
  C   C6        1.0  0.16339  0.37916  0.58735  1.0000
  C   C7        1.0  0.81202  0.86815  0.45373  1.0000
  C   C8        1.0  0.18798  0.13184  0.54627  1.0000
  C   C9        1.0  0.90040  0.50875  0.35008  1.0000
  C   C10       1.0  0.09960  0.49125  0.64992  1.0000
  C   C11       1.0  0.48239  0.67040  0.23338  1.0000
  C   C12       1.0  0.51761  0.32960  0.76661  1.0000
  C   C13       1.0  0.97827  0.53356  0.25488  1.0000
  C   C14       1.0  0.02173  0.46643  0.74512  1.0000
  C   C15       1.0  0.51602  0.78537  0.17382  1.0000
  C   C16       1.0  0.48398  0.21463  0.82617  1.0000
  C   C17       1.0  0.54835  0.52018  0.19929  1.0000
  C   C18       1.0  0.45165  0.47981  0.80071  1.0000
  C   C19       1.0  0.38615  0.69710  0.32505  1.0000
  C   C20       1.0  0.61385  0.30291  0.67495  1.0000
  C   C21       1.0  0.44666  0.92239  0.20723  1.0000
  C   C22       1.0  0.55334  0.07761  0.79276  1.0000
  C   C23       1.0  0.93033  0.78001  0.28654  1.0000
  C   C24       1.0  0.06966  0.21999  0.71346  1.0000
  C   C25       1.0  0.34960  0.94257  0.29913  1.0000
  C   C26       1.0  0.65039  0.05743  0.70087  1.0000
  C   C27       1.0  0.62833  0.06665  0.11539  1.0000
  C   C28       1.0  0.37166  0.93335  0.88460  1.0000
  C   C29       1.0  0.39803  0.26944  0.09351  1.0000
  C   C30       1.0  0.60197  0.73057  0.90649  1.0000
  C   C31       1.0  0.88770  0.36309  0.38752  1.0000
  C   C32       1.0  0.11230  0.63692  0.61248  1.0000
  C   C33       1.0  0.05612  0.70806  0.11782  1.0000
  C   C34       1.0  0.94389  0.29193  0.88218  1.0000
  N   N1        1.0  0.32293  0.83029  0.35733  1.0000
  N   N2        1.0  0.67707  0.16971  0.64266  1.0000
  N   N3        1.0  0.47199  0.04579  0.15000  1.0000
  N   N4        1.0  0.52800  0.95421  0.85000  1.0000
  N   N5        1.0  0.32463  0.17421  0.13582  1.0000
  N   N6        1.0  0.67537  0.82579  0.86418  1.0000
  N   N7        1.0  0.58430  0.20737  0.07917  1.0000
  N   N8        1.0  0.41569  0.79263  0.92083  1.0000
  O   O1        1.0  0.90831  0.95292  0.44058  1.0000
  O   O2        1.0  0.09169  0.04708  0.55942  1.0000
  O   O3        1.0  0.63348  0.51069  0.11272  1.0000
  O   O4        1.0  0.36652  0.48931  0.88728  1.0000
  O   O5        1.0  0.69208  0.87865  0.52190  1.0000
  O   O6        1.0  0.30793  0.12135  0.47810  1.0000
  O   O7        1.0  0.51748  0.41880  0.25405  1.0000
  O   O8        1.0  0.48253  0.58120  0.74595  1.0000
  O   O9        1.0  0.95318  0.25600  0.33649  1.0000
  O   O10       1.0  0.04682  0.74399  0.66352  1.0000
  O   O11       1.0  0.00802  0.83861  0.07964  1.0000
  O   O12       1.0  0.99199  0.16138  0.92036  1.0000
  O   O13       1.0  0.16558  0.60079  0.07142  1.0000
  O   O14       1.0  0.83442  0.39921  0.92858  1.0000
  O   O15       1.0  0.81141  0.35113  0.47490  1.0000
  O   O16       1.0  0.18860  0.64887  0.52510  1.0000
  O   O17       1.0  0.95657  0.19554  0.15592  1.0000
  O   O18       1.0  0.04343  0.80446  0.84409  1.0000
  O   O19       1.0  0.42431  0.79832  0.59391  1.0000
  O   O20       1.0  0.57569  0.20168  0.40609  1.0000
