data_image0
_chemical_formula_structural       Cd2H28C32N16O12
_chemical_formula_sum              "Cd2 H28 C32 N16 O12"
_cell_length_a       7.0916
_cell_length_b       11.8611
_cell_length_c       11.7527
_cell_angle_alpha    116.907
_cell_angle_beta     89.9999
_cell_angle_gamma    90

_space_group_name_H-M_alt    "P 1"
_space_group_IT_number       1

loop_
  _space_group_symop_operation_xyz
  'x, y, z'

loop_
  _atom_site_type_symbol
  _atom_site_label
  _atom_site_symmetry_multiplicity
  _atom_site_fract_x
  _atom_site_fract_y
  _atom_site_fract_z
  _atom_site_occupancy
  Cd  Cd1       1.0  0.00000  1.00000  1.00000  1.0000
  Cd  Cd2       1.0  0.50001  0.00000  0.50000  1.0000
  H   H1        1.0  0.56287  0.63605  0.68226  1.0000
  H   H2        1.0  0.06286  0.36395  0.81774  1.0000
  H   H3        1.0  0.43714  0.36395  0.31773  1.0000
  H   H4        1.0  0.93715  0.63605  0.18227  1.0000
  H   H5        1.0  0.67085  0.48209  0.94698  1.0000
  H   H6        1.0  0.17084  0.51791  0.55303  1.0000
  H   H7        1.0  0.32916  0.51792  0.05302  1.0000
  H   H8        1.0  0.82915  0.48208  0.44698  1.0000
  H   H9        1.0  0.61450  0.86943  0.08807  1.0000
  H   H10       1.0  0.11451  0.13057  0.41193  1.0000
  H   H11       1.0  0.38549  0.13058  0.91193  1.0000
  H   H12       1.0  0.88549  0.86942  0.58807  1.0000
  H   H13       1.0  0.48996  0.30203  0.77706  1.0000
  H   H14       1.0  0.98996  0.69797  0.72294  1.0000
  H   H15       1.0  0.51004  0.69798  0.22294  1.0000
  H   H16       1.0  0.01004  0.30203  0.27707  1.0000
  H   H17       1.0  0.66987  0.22885  0.40810  1.0000
  H   H18       1.0  0.16987  0.77115  0.09190  1.0000
  H   H19       1.0  0.33013  0.77116  0.59190  1.0000
  H   H20       1.0  0.83013  0.22884  0.90810  1.0000
  H   H21       1.0  0.06367  0.01031  0.76357  1.0000
  H   H22       1.0  0.56367  0.98969  0.73642  1.0000
  H   H23       1.0  0.93633  0.98969  0.23643  1.0000
  H   H24       1.0  0.43633  0.01031  0.26357  1.0000
  H   H25       1.0  0.23379  0.93107  0.78731  1.0000
  H   H26       1.0  0.73379  0.06894  0.71269  1.0000
  H   H27       1.0  0.76621  0.06893  0.21268  1.0000
  H   H28       1.0  0.26621  0.93107  0.28732  1.0000
  C   C1        1.0  0.58276  0.64797  0.77897  1.0000
  C   C2        1.0  0.08275  0.35203  0.72103  1.0000
  C   C3        1.0  0.41724  0.35203  0.22102  1.0000
  C   C4        1.0  0.91725  0.64796  0.27897  1.0000
  C   C5        1.0  0.59069  0.76791  0.88255  1.0000
  C   C6        1.0  0.09069  0.23208  0.61745  1.0000
  C   C7        1.0  0.40931  0.23208  0.11745  1.0000
  C   C8        1.0  0.90931  0.76791  0.38255  1.0000
  C   C9        1.0  0.61009  0.54360  0.80198  1.0000
  C   C10       1.0  0.11009  0.45640  0.69802  1.0000
  C   C11       1.0  0.38991  0.45640  0.19801  1.0000
  C   C12       1.0  0.88991  0.54360  0.30199  1.0000
  C   C13       1.0  0.64070  0.56145  0.92654  1.0000
  C   C14       1.0  0.14070  0.43855  0.57346  1.0000
  C   C15       1.0  0.35930  0.43855  0.07345  1.0000
  C   C16       1.0  0.85929  0.56144  0.42654  1.0000
  C   C17       1.0  0.61505  0.77712  0.00499  1.0000
  C   C18       1.0  0.11505  0.22288  0.49501  1.0000
  C   C19       1.0  0.38494  0.22288  0.99501  1.0000
  C   C20       1.0  0.88494  0.77712  0.50499  1.0000
  C   C21       1.0  0.58390  0.88356  0.86111  1.0000
  C   C22       1.0  0.08390  0.11644  0.63889  1.0000
  C   C23       1.0  0.41610  0.11644  0.13889  1.0000
  C   C24       1.0  0.91610  0.88356  0.36110  1.0000
  C   C25       1.0  0.54831  0.31032  0.69525  1.0000
  C   C26       1.0  0.04830  0.68968  0.80476  1.0000
  C   C27       1.0  0.45170  0.68968  0.30475  1.0000
  C   C28       1.0  0.95170  0.31032  0.19525  1.0000
  C   C29       1.0  0.64009  0.27738  0.50951  1.0000
  C   C30       1.0  0.14008  0.72262  0.99049  1.0000
  C   C31       1.0  0.35992  0.72263  0.49048  1.0000
  C   C32       1.0  0.85991  0.27737  0.00952  1.0000
  N   N1        1.0  0.63746  0.67653  0.02706  1.0000
  N   N2        1.0  0.13745  0.32347  0.47295  1.0000
  N   N3        1.0  0.36254  0.32347  0.97294  1.0000
  N   N4        1.0  0.86254  0.67653  0.52706  1.0000
  N   N5        1.0  0.60874  0.42023  0.69851  1.0000
  N   N6        1.0  0.10873  0.57977  0.80149  1.0000
  N   N7        1.0  0.39126  0.57977  0.30149  1.0000
  N   N8        1.0  0.89126  0.42023  0.19851  1.0000
  N   N9        1.0  0.66736  0.40025  0.57974  1.0000
  N   N10       1.0  0.16736  0.59975  0.92026  1.0000
  N   N11       1.0  0.33265  0.59976  0.42025  1.0000
  N   N12       1.0  0.83264  0.40024  0.07975  1.0000
  N   N13       1.0  0.56621  0.21857  0.57622  1.0000
  N   N14       1.0  0.06621  0.78143  0.92379  1.0000
  N   N15       1.0  0.43380  0.78143  0.42378  1.0000
  N   N16       1.0  0.93379  0.21857  0.07622  1.0000
  O   O1        1.0  0.47341  0.88208  0.77462  1.0000
  O   O2        1.0  0.97341  0.11792  0.72539  1.0000
  O   O3        1.0  0.52659  0.11792  0.22538  1.0000
  O   O4        1.0  0.02660  0.88207  0.27461  1.0000
  O   O5        1.0  0.69198  0.97509  0.92649  1.0000
  O   O6        1.0  0.19199  0.02491  0.57352  1.0000
  O   O7        1.0  0.30802  0.02491  0.07352  1.0000
  O   O8        1.0  0.80802  0.97509  0.42648  1.0000
  O   O9        1.0  0.09642  0.94699  0.79533  1.0000
  O   O10       1.0  0.59642  0.05301  0.70467  1.0000
  O   O11       1.0  0.90358  0.05301  0.20467  1.0000
  O   O12       1.0  0.40358  0.94699  0.29533  1.0000
