data_image0
_chemical_formula_structural       Zn2H24C32N8O14
_chemical_formula_sum              "Zn2 H24 C32 N8 O14"
_cell_length_a       8.92024
_cell_length_b       9.89423
_cell_length_c       10.0695
_cell_angle_alpha    75.9583
_cell_angle_beta     67.7017
_cell_angle_gamma    83.7268

_space_group_name_H-M_alt    "P 1"
_space_group_IT_number       1

loop_
  _space_group_symop_operation_xyz
  'x, y, z'

loop_
  _atom_site_type_symbol
  _atom_site_label
  _atom_site_symmetry_multiplicity
  _atom_site_fract_x
  _atom_site_fract_y
  _atom_site_fract_z
  _atom_site_occupancy
  Zn  Zn1       1.0  0.99993  0.20231  0.04005  1.0000
  Zn  Zn2       1.0  0.00006  0.79769  0.95995  1.0000
  H   H1        1.0  0.05960  0.84157  0.61935  1.0000
  H   H2        1.0  0.94040  0.15842  0.38066  1.0000
  H   H3        1.0  0.34299  0.60056  0.84588  1.0000
  H   H4        1.0  0.65701  0.39944  0.15412  1.0000
  H   H5        1.0  0.16099  0.41726  0.06891  1.0000
  H   H6        1.0  0.83901  0.58274  0.93109  1.0000
  H   H7        1.0  0.29730  0.32574  0.96083  1.0000
  H   H8        1.0  0.70270  0.67426  0.03917  1.0000
  H   H9        1.0  0.11831  0.88065  0.38753  1.0000
  H   H10       1.0  0.88169  0.11935  0.61247  1.0000
  H   H11       1.0  0.45247  0.78930  0.98022  1.0000
  H   H12       1.0  0.54753  0.21070  0.01978  1.0000
  H   H13       1.0  0.23237  0.35629  0.54040  1.0000
  H   H14       1.0  0.76763  0.64372  0.45960  1.0000
  H   H15       1.0  0.76011  0.54296  0.71447  1.0000
  H   H16       1.0  0.23989  0.45704  0.28554  1.0000
  H   H17       1.0  0.54972  0.62242  0.36024  1.0000
  H   H18       1.0  0.45028  0.37758  0.63976  1.0000
  H   H19       1.0  0.25924  0.23841  0.17719  1.0000
  H   H20       1.0  0.74076  0.76159  0.82281  1.0000
  H   H21       1.0  0.22782  0.07841  0.65445  1.0000
  H   H22       1.0  0.77218  0.92159  0.34555  1.0000
  H   H23       1.0  0.58114  0.04380  0.22823  1.0000
  H   H24       1.0  0.41886  0.95620  0.77177  1.0000
  C   C1        1.0  0.15608  0.77747  0.64548  1.0000
  C   C2        1.0  0.84391  0.22253  0.35452  1.0000
  C   C3        1.0  0.30171  0.65232  0.75765  1.0000
  C   C4        1.0  0.69829  0.34768  0.24235  1.0000
  C   C5        1.0  0.22917  0.83032  0.32624  1.0000
  C   C6        1.0  0.77083  0.16968  0.67376  1.0000
  C   C7        1.0  0.32778  0.74647  0.39414  1.0000
  C   C8        1.0  0.67222  0.25353  0.60586  1.0000
  C   C9        1.0  0.27427  0.84718  0.17471  1.0000
  C   C10       1.0  0.72573  0.15282  0.82529  1.0000
  C   C11       1.0  0.41511  0.77923  0.09836  1.0000
  C   C12       1.0  0.58489  0.22077  0.90164  1.0000
  C   C13       1.0  0.17742  0.93915  0.09210  1.0000
  C   C14       1.0  0.82258  0.06085  0.90790  1.0000
  C   C15       1.0  0.99611  0.44441  0.64367  1.0000
  C   C16       1.0  0.00389  0.55560  0.35633  1.0000
  C   C17       1.0  0.98560  0.38094  0.79804  1.0000
  C   C18       1.0  0.01440  0.61906  0.20196  1.0000
  C   C19       1.0  0.13093  0.41931  0.52233  1.0000
  C   C20       1.0  0.86907  0.58070  0.47767  1.0000
  C   C21       1.0  0.86553  0.52543  0.61985  1.0000
  C   C22       1.0  0.13447  0.47458  0.38015  1.0000
  C   C23       1.0  0.47006  0.68608  0.30946  1.0000
  C   C24       1.0  0.52994  0.31392  0.69054  1.0000
  C   C25       1.0  0.27287  0.13444  0.36843  1.0000
  C   C26       1.0  0.72712  0.86556  0.63157  1.0000
  C   C27       1.0  0.34684  0.04353  0.58771  1.0000
  C   C28       1.0  0.65316  0.95647  0.41229  1.0000
  C   C29       1.0  0.54562  0.02464  0.34701  1.0000
  C   C30       1.0  0.45438  0.97536  0.65299  1.0000
  C   C31       1.0  0.39279  0.06807  0.43460  1.0000
  C   C32       1.0  0.60721  0.93193  0.56540  1.0000
  N   N1        1.0  0.16290  0.73254  0.77888  1.0000
  N   N2        1.0  0.83710  0.26746  0.22112  1.0000
  N   N3        1.0  0.28575  0.72465  0.54817  1.0000
  N   N4        1.0  0.71425  0.27535  0.45183  1.0000
  N   N5        1.0  0.38027  0.64436  0.61874  1.0000
  N   N6        1.0  0.61973  0.35564  0.38127  1.0000
  N   N7        1.0  0.51246  0.70292  0.16366  1.0000
  N   N8        1.0  0.48754  0.29708  0.83634  1.0000
  O   O1        1.0  0.19321  0.32020  0.05082  1.0000
  O   O2        1.0  0.80678  0.67980  0.94918  1.0000
  O   O3        1.0  0.18399  0.91281  0.97303  1.0000
  O   O4        1.0  0.81601  0.08719  0.02697  1.0000
  O   O5        1.0  0.09947  0.04060  0.14751  1.0000
  O   O6        1.0  0.90054  0.95940  0.85248  1.0000
  O   O7        1.0  0.07725  0.27415  0.81833  1.0000
  O   O8        1.0  0.92274  0.72585  0.18167  1.0000
  O   O9        1.0  0.88397  0.42850  0.90459  1.0000
  O   O10       1.0  0.11603  0.57150  0.09542  1.0000
  O   O11       1.0  0.12576  0.12786  0.43935  1.0000
  O   O12       1.0  0.87425  0.87215  0.56065  1.0000
  O   O13       1.0  0.33993  0.19913  0.22793  1.0000
  O   O14       1.0  0.66007  0.80088  0.77207  1.0000
