data_image0
_chemical_formula_structural       Zn4As4H24C24N4O12
_chemical_formula_sum              "Zn4 As4 H24 C24 N4 O12"
_cell_length_a       5.31446
_cell_length_b       11.2798
_cell_length_c       13.8491
_cell_angle_alpha    68.6314
_cell_angle_beta     78.9082
_cell_angle_gamma    76.3795

_space_group_name_H-M_alt    "P 1"
_space_group_IT_number       1

loop_
  _space_group_symop_operation_xyz
  'x, y, z'

loop_
  _atom_site_type_symbol
  _atom_site_label
  _atom_site_symmetry_multiplicity
  _atom_site_fract_x
  _atom_site_fract_y
  _atom_site_fract_z
  _atom_site_occupancy
  Zn  Zn1       1.0  0.10689  0.47234  0.62447  1.0000
  Zn  Zn2       1.0  0.20333  0.02781  0.87549  1.0000
  Zn  Zn3       1.0  0.89311  0.52767  0.37553  1.0000
  Zn  Zn4       1.0  0.79668  0.97219  0.12451  1.0000
  As  As1       1.0  0.56342  0.64815  0.54699  1.0000
  As  As2       1.0  0.75809  0.85193  0.95297  1.0000
  As  As3       1.0  0.43658  0.35185  0.45301  1.0000
  As  As4       1.0  0.24191  0.14807  0.04703  1.0000
  H   H1        1.0  0.35677  0.17677  0.67805  1.0000
  H   H2        1.0  0.21088  0.32324  0.82201  1.0000
  H   H3        1.0  0.64324  0.82323  0.32195  1.0000
  H   H4        1.0  0.78911  0.67676  0.17799  1.0000
  H   H5        1.0  0.59826  0.08377  0.75242  1.0000
  H   H6        1.0  0.43408  0.41613  0.74765  1.0000
  H   H7        1.0  0.40175  0.91623  0.24758  1.0000
  H   H8        1.0  0.56591  0.58387  0.25235  1.0000
  H   H9        1.0  0.84080  0.89924  0.72976  1.0000
  H   H10       1.0  0.46945  0.60079  0.77024  1.0000
  H   H11       1.0  0.15921  0.10076  0.27024  1.0000
  H   H12       1.0  0.53054  0.39921  0.22976  1.0000
  H   H13       1.0  0.90055  0.72445  0.65501  1.0000
  H   H14       1.0  0.27950  0.77558  0.84500  1.0000
  H   H15       1.0  0.09947  0.27554  0.34499  1.0000
  H   H16       1.0  0.72049  0.22442  0.15501  1.0000
  H   H17       1.0  0.15768  0.88981  0.53506  1.0000
  H   H18       1.0  0.58189  0.61007  0.96509  1.0000
  H   H19       1.0  0.84233  0.11018  0.46494  1.0000
  H   H20       1.0  0.41810  0.38993  0.03491  1.0000
  H   H21       1.0  0.10152  0.06544  0.61030  1.0000
  H   H22       1.0  0.77685  0.43439  0.88989  1.0000
  H   H23       1.0  0.89849  0.93456  0.38971  1.0000
  H   H24       1.0  0.22314  0.56562  0.11011  1.0000
  C   C1        1.0  0.46489  0.99044  0.67753  1.0000
  C   C2        1.0  0.13235  0.50954  0.82251  1.0000
  C   C3        1.0  0.53512  0.00956  0.32247  1.0000
  C   C4        1.0  0.86764  0.49046  0.17748  1.0000
  C   C5        1.0  0.69059  0.89583  0.68801  1.0000
  C   C6        1.0  0.27400  0.60421  0.81198  1.0000
  C   C7        1.0  0.30942  0.10417  0.31199  1.0000
  C   C8        1.0  0.72599  0.39580  0.18802  1.0000
  C   C9        1.0  0.72420  0.79804  0.64556  1.0000
  C   C10       1.0  0.16723  0.70198  0.85444  1.0000
  C   C11       1.0  0.27581  0.20196  0.35444  1.0000
  C   C12       1.0  0.83277  0.29802  0.14556  1.0000
  C   C13       1.0  0.53131  0.79573  0.59102  1.0000
  C   C14       1.0  0.91747  0.70425  0.90902  1.0000
  C   C15       1.0  0.46870  0.20427  0.40898  1.0000
  C   C16       1.0  0.08252  0.29575  0.09098  1.0000
  C   C17       1.0  0.30772  0.89208  0.57759  1.0000
  C   C18       1.0  0.77675  0.60786  0.92251  1.0000
  C   C19       1.0  0.69229  0.10792  0.42241  1.0000
  C   C20       1.0  0.22324  0.39214  0.07749  1.0000
  C   C21       1.0  0.27439  0.98956  0.62059  1.0000
  C   C22       1.0  0.88404  0.51037  0.87953  1.0000
  C   C23       1.0  0.72563  0.01044  0.37941  1.0000
  C   C24       1.0  0.11595  0.48963  0.12047  1.0000
  N   N1        1.0  0.42644  0.08448  0.72800  1.0000
  N   N2        1.0  0.23847  0.41552  0.77203  1.0000
  N   N3        1.0  0.57357  0.91551  0.27199  1.0000
  N   N4        1.0  0.76152  0.58448  0.22797  1.0000
  O   O1        1.0  0.72618  0.51437  0.63657  1.0000
  O   O2        1.0  0.87703  0.98562  0.86327  1.0000
  O   O3        1.0  0.27381  0.48563  0.36343  1.0000
  O   O4        1.0  0.12297  0.01438  0.13673  1.0000
  O   O5        1.0  0.73353  0.67537  0.42328  1.0000
  O   O6        1.0  0.83182  0.82468  0.07662  1.0000
  O   O7        1.0  0.26647  0.32463  0.57672  1.0000
  O   O8        1.0  0.16817  0.17533  0.92338  1.0000
  O   O9        1.0  0.25248  0.63029  0.54775  1.0000
  O   O10       1.0  0.43000  0.86992  0.95226  1.0000
  O   O11       1.0  0.74752  0.36972  0.45225  1.0000
  O   O12       1.0  0.57000  0.13009  0.04774  1.0000
