data_image0
_chemical_formula_structural       Zn2H38C30S2N6O14
_chemical_formula_sum              "Zn2 H38 C30 S2 N6 O14"
_cell_length_a       4.87863
_cell_length_b       10.3995
_cell_length_c       17.6324
_cell_angle_alpha    92.1759
_cell_angle_beta     90.0002
_cell_angle_gamma    90

_space_group_name_H-M_alt    "P 1"
_space_group_IT_number       1

loop_
  _space_group_symop_operation_xyz
  'x, y, z'

loop_
  _atom_site_type_symbol
  _atom_site_label
  _atom_site_symmetry_multiplicity
  _atom_site_fract_x
  _atom_site_fract_y
  _atom_site_fract_z
  _atom_site_occupancy
  Zn  Zn1       1.0  0.92791  0.77888  0.86107  1.0000
  Zn  Zn2       1.0  0.42791  0.22112  0.13893  1.0000
  H   H1        1.0  0.61634  0.44331  0.56981  1.0000
  H   H2        1.0  0.11634  0.55669  0.43019  1.0000
  H   H3        1.0  0.64371  0.64171  0.49647  1.0000
  H   H4        1.0  0.14370  0.35829  0.50353  1.0000
  H   H5        1.0  0.96245  0.80220  0.62329  1.0000
  H   H6        1.0  0.46245  0.19780  0.37671  1.0000
  H   H7        1.0  0.93093  0.60461  0.69645  1.0000
  H   H8        1.0  0.43092  0.39539  0.30355  1.0000
  H   H9        1.0  0.52444  0.87918  0.49418  1.0000
  H   H10       1.0  0.02444  0.12082  0.50581  1.0000
  H   H11       1.0  0.20439  0.93316  0.53303  1.0000
  H   H12       1.0  0.70439  0.06684  0.46697  1.0000
  H   H13       1.0  0.21291  0.82961  0.45072  1.0000
  H   H14       1.0  0.71291  0.17038  0.54928  1.0000
  H   H15       1.0  0.33054  0.89956  0.93691  1.0000
  H   H16       1.0  0.83053  0.10044  0.06309  1.0000
  H   H17       1.0  0.10190  0.00688  0.94637  1.0000
  H   H18       1.0  0.60190  0.99312  0.05363  1.0000
  H   H19       1.0  0.07822  0.49281  0.81305  1.0000
  H   H20       1.0  0.57821  0.50719  0.18694  1.0000
  H   H21       1.0  0.54877  0.42181  0.91887  1.0000
  H   H22       1.0  0.04877  0.57819  0.08113  1.0000
  H   H23       1.0  0.24392  0.50386  0.94463  1.0000
  H   H24       1.0  0.74392  0.49614  0.05537  1.0000
  H   H25       1.0  0.26884  0.22866  0.87422  1.0000
  H   H26       1.0  0.76884  0.77134  0.12578  1.0000
  H   H27       1.0  0.96535  0.30945  0.90061  1.0000
  H   H28       1.0  0.46535  0.69055  0.09939  1.0000
  H   H29       1.0  0.06745  0.06052  0.81210  1.0000
  H   H30       1.0  0.56745  0.93948  0.18790  1.0000
  H   H31       1.0  0.44680  0.02933  0.64471  1.0000
  H   H32       1.0  0.94681  0.97067  0.35529  1.0000
  H   H33       1.0  0.48211  0.80012  0.72135  1.0000
  H   H34       1.0  0.98211  0.19988  0.27865  1.0000
  H   H35       1.0  0.81140  0.17486  0.70737  1.0000
  H   H36       1.0  0.31140  0.82514  0.29263  1.0000
  H   H37       1.0  0.61616  0.39606  0.75890  1.0000
  H   H38       1.0  0.11616  0.60394  0.24110  1.0000
  C   C1        1.0  0.27025  0.51179  0.63651  1.0000
  C   C2        1.0  0.77024  0.48821  0.36349  1.0000
  C   C3        1.0  0.47352  0.52216  0.58109  1.0000
  C   C4        1.0  0.97351  0.47784  0.41892  1.0000
  C   C5        1.0  0.48716  0.63352  0.54007  1.0000
  C   C6        1.0  0.98716  0.36648  0.45993  1.0000
  C   C7        1.0  0.30239  0.73515  0.55371  1.0000
  C   C8        1.0  0.80238  0.26485  0.44629  1.0000
  C   C9        1.0  0.10603  0.72369  0.61103  1.0000
  C   C10       1.0  0.60602  0.27632  0.38897  1.0000
  C   C11       1.0  0.08713  0.61261  0.65262  1.0000
  C   C12       1.0  0.58713  0.38739  0.34738  1.0000
  C   C13       1.0  0.31211  0.85118  0.50579  1.0000
  C   C14       1.0  0.81211  0.14882  0.49421  1.0000
  C   C15       1.0  0.44329  0.60948  0.82071  1.0000
  C   C16       1.0  0.94329  0.39052  0.17928  1.0000
  C   C17       1.0  0.29741  0.47946  0.82444  1.0000
  C   C18       1.0  0.79741  0.52054  0.17556  1.0000
  C   C19       1.0  0.32970  0.43013  0.90514  1.0000
  C   C20       1.0  0.82970  0.56987  0.09485  1.0000
  C   C21       1.0  0.18488  0.30200  0.91449  1.0000
  C   C22       1.0  0.68488  0.69800  0.08551  1.0000
  C   C23       1.0  0.20472  0.24668  0.99286  1.0000
  C   C24       1.0  0.70472  0.75332  0.00714  1.0000
  C   C25       1.0  0.90416  0.02046  0.77714  1.0000
  C   C26       1.0  0.40415  0.97953  0.22286  1.0000
  C   C27       1.0  0.58092  0.99953  0.68951  1.0000
  C   C28       1.0  0.08093  0.00047  0.31049  1.0000
  C   C29       1.0  0.60043  0.88757  0.72797  1.0000
  C   C30       1.0  0.10043  0.11243  0.27203  1.0000
  S   S1        1.0  0.24906  0.36735  0.68614  1.0000
  S   S2        1.0  0.74905  0.63265  0.31386  1.0000
  N   N1        1.0  0.40853  0.38549  0.76755  1.0000
  N   N2        1.0  0.90853  0.61451  0.23245  1.0000
  N   N3        1.0  0.80221  0.90194  0.78267  1.0000
  N   N4        1.0  0.30221  0.09806  0.21733  1.0000
  N   N5        1.0  0.77405  0.08184  0.72156  1.0000
  N   N6        1.0  0.27404  0.91816  0.27844  1.0000
  O   O1        1.0  0.69606  0.60884  0.80335  1.0000
  O   O2        1.0  0.19605  0.39116  0.19665  1.0000
  O   O3        1.0  0.31079  0.71126  0.83825  1.0000
  O   O4        1.0  0.81079  0.28874  0.16175  1.0000
  O   O5        1.0  0.39288  0.26846  0.64210  1.0000
  O   O6        1.0  0.89287  0.73154  0.35789  1.0000
  O   O7        1.0  0.96107  0.34642  0.70392  1.0000
  O   O8        1.0  0.46107  0.65357  0.29608  1.0000
  O   O9        1.0  0.34343  0.30989  0.04336  1.0000
  O   O10       1.0  0.84343  0.69012  0.95664  1.0000
  O   O11       1.0  0.08563  0.14085  0.00410  1.0000
  O   O12       1.0  0.58563  0.85915  0.99590  1.0000
  O   O13       1.0  0.16340  0.93368  0.91251  1.0000
  O   O14       1.0  0.66339  0.06632  0.08749  1.0000
