data_image0
_chemical_formula_structural       Sr2H12C12N8
_chemical_formula_sum              "Sr2 H12 C12 N8"
_cell_length_a       7.10242
_cell_length_b       7.10241
_cell_length_c       7.43272
_cell_angle_alpha    94.7633
_cell_angle_beta     94.767
_cell_angle_gamma    92.3767

_space_group_name_H-M_alt    "P 1"
_space_group_IT_number       1

loop_
  _space_group_symop_operation_xyz
  'x, y, z'

loop_
  _atom_site_type_symbol
  _atom_site_label
  _atom_site_symmetry_multiplicity
  _atom_site_fract_x
  _atom_site_fract_y
  _atom_site_fract_z
  _atom_site_occupancy
  Sr  Sr1       1.0  0.39248  0.60752  0.75000  1.0000
  Sr  Sr2       1.0  0.60752  0.39248  0.25001  1.0000
  H   H1        1.0  0.35862  0.88473  0.24864  1.0000
  H   H2        1.0  0.11526  0.64140  0.25137  1.0000
  H   H3        1.0  0.64136  0.11526  0.75136  1.0000
  H   H4        1.0  0.88473  0.35861  0.74866  1.0000
  H   H5        1.0  0.89508  0.03879  0.09637  1.0000
  H   H6        1.0  0.96126  0.10491  0.40364  1.0000
  H   H7        1.0  0.10488  0.96124  0.90362  1.0000
  H   H8        1.0  0.03879  0.89506  0.59634  1.0000
  H   H9        1.0  0.81032  0.66554  0.97704  1.0000
  H   H10       1.0  0.33451  0.18968  0.52294  1.0000
  H   H11       1.0  0.18967  0.33448  0.02296  1.0000
  H   H12       1.0  0.66552  0.81031  0.47705  1.0000
  C   C1        1.0  0.49458  0.87443  0.19191  1.0000
  C   C2        1.0  0.12557  0.50544  0.30810  1.0000
  C   C3        1.0  0.50541  0.12556  0.80809  1.0000
  C   C4        1.0  0.87444  0.49455  0.69192  1.0000
  C   C5        1.0  0.77009  0.95108  0.11280  1.0000
  C   C6        1.0  0.04894  0.22992  0.38721  1.0000
  C   C7        1.0  0.22989  0.04893  0.88719  1.0000
  C   C8        1.0  0.95107  0.77005  0.61277  1.0000
  C   C9        1.0  0.72708  0.76428  0.05305  1.0000
  C   C10       1.0  0.23576  0.27292  0.44695  1.0000
  C   C11       1.0  0.27290  0.23574  0.94694  1.0000
  C   C12       1.0  0.76426  0.72707  0.55304  1.0000
  N   N1        1.0  0.54882  0.71357  0.10326  1.0000
  N   N2        1.0  0.28645  0.45121  0.39675  1.0000
  N   N3        1.0  0.45117  0.28643  0.89675  1.0000
  N   N4        1.0  0.71356  0.54879  0.60326  1.0000
  N   N5        1.0  0.62200  0.02158  0.20248  1.0000
  N   N6        1.0  0.97843  0.37801  0.29755  1.0000
  N   N7        1.0  0.37797  0.97843  0.79752  1.0000
  N   N8        1.0  0.02159  0.62197  0.70246  1.0000
