data_image0
_chemical_formula_structural       Cd2H30C30N2O24
_chemical_formula_sum              "Cd2 H30 C30 N2 O24"
_cell_length_a       8.37427
_cell_length_b       8.64973
_cell_length_c       12.7881
_cell_angle_alpha    94.9715
_cell_angle_beta     98.9473
_cell_angle_gamma    98.9922

_space_group_name_H-M_alt    "P 1"
_space_group_IT_number       1

loop_
  _space_group_symop_operation_xyz
  'x, y, z'

loop_
  _atom_site_type_symbol
  _atom_site_label
  _atom_site_symmetry_multiplicity
  _atom_site_fract_x
  _atom_site_fract_y
  _atom_site_fract_z
  _atom_site_occupancy
  Cd  Cd1       1.0  0.30185  0.72656  0.01326  1.0000
  Cd  Cd2       1.0  0.69815  0.27345  0.98674  1.0000
  H   H1        1.0  0.64432  0.70342  0.06301  1.0000
  H   H2        1.0  0.35570  0.29660  0.93698  1.0000
  H   H3        1.0  0.63643  0.89015  0.07922  1.0000
  H   H4        1.0  0.36357  0.10987  0.92078  1.0000
  H   H5        1.0  0.46142  0.51931  0.87965  1.0000
  H   H6        1.0  0.53860  0.48069  0.12035  1.0000
  H   H7        1.0  0.29051  0.51699  0.80820  1.0000
  H   H8        1.0  0.70951  0.48300  0.19181  1.0000
  H   H9        1.0  0.23548  0.97960  0.15088  1.0000
  H   H10       1.0  0.76451  0.02041  0.84912  1.0000
  H   H11       1.0  0.33474  0.07297  0.07200  1.0000
  H   H12       1.0  0.66525  0.92704  0.92799  1.0000
  H   H13       1.0  0.03177  0.67574  0.85703  1.0000
  H   H14       1.0  0.96824  0.32425  0.14298  1.0000
  H   H15       1.0  0.93142  0.64085  0.95314  1.0000
  H   H16       1.0  0.06859  0.35911  0.04686  1.0000
  H   H17       1.0  0.40234  0.29681  0.22172  1.0000
  H   H18       1.0  0.59767  0.70319  0.77829  1.0000
  H   H19       1.0  0.40074  0.14569  0.37821  1.0000
  H   H20       1.0  0.59925  0.85431  0.62179  1.0000
  H   H21       1.0  0.20743  0.65895  0.38601  1.0000
  H   H22       1.0  0.79258  0.34106  0.61399  1.0000
  H   H23       1.0  0.53399  0.17051  0.58512  1.0000
  H   H24       1.0  0.46600  0.82949  0.41488  1.0000
  H   H25       1.0  0.48970  0.99841  0.72664  1.0000
  H   H26       1.0  0.51029  0.00160  0.27337  1.0000
  H   H27       1.0  0.02656  0.22863  0.54829  1.0000
  H   H28       1.0  0.97343  0.77136  0.45170  1.0000
  H   H29       1.0  0.11400  0.69801  0.63887  1.0000
  H   H30       1.0  0.88600  0.30199  0.36113  1.0000
  C   C1        1.0  0.28869  0.57092  0.19602  1.0000
  C   C2        1.0  0.71133  0.42910  0.80398  1.0000
  C   C3        1.0  0.29952  0.48512  0.29280  1.0000
  C   C4        1.0  0.70049  0.51489  0.70721  1.0000
  C   C5        1.0  0.36006  0.34324  0.29244  1.0000
  C   C6        1.0  0.63994  0.65677  0.70756  1.0000
  C   C7        1.0  0.36176  0.25987  0.38066  1.0000
  C   C8        1.0  0.63823  0.74013  0.61934  1.0000
  C   C9        1.0  0.30445  0.31575  0.47129  1.0000
  C   C10       1.0  0.69554  0.68425  0.52870  1.0000
  C   C11       1.0  0.25441  0.46470  0.47494  1.0000
  C   C12       1.0  0.74559  0.53529  0.52506  1.0000
  C   C13       1.0  0.21719  0.53801  0.57625  1.0000
  C   C14       1.0  0.78281  0.46199  0.42375  1.0000
  C   C15       1.0  0.24938  0.54598  0.38494  1.0000
  C   C16       1.0  0.75063  0.45403  0.61506  1.0000
  C   C17       1.0  0.28365  0.21102  0.55553  1.0000
  C   C18       1.0  0.71634  0.78897  0.44446  1.0000
  C   C19       1.0  0.41207  0.14332  0.60563  1.0000
  C   C20       1.0  0.58792  0.85667  0.39437  1.0000
  C   C21       1.0  0.38748  0.04515  0.68482  1.0000
  C   C22       1.0  0.61251  0.95486  0.31518  1.0000
  C   C23       1.0  0.23328  0.00813  0.71384  1.0000
  C   C24       1.0  0.76671  0.99187  0.28617  1.0000
  C   C25       1.0  0.20650  0.88701  0.78969  1.0000
  C   C26       1.0  0.79350  0.11300  0.21031  1.0000
  C   C27       1.0  0.10591  0.07729  0.66274  1.0000
  C   C28       1.0  0.89408  0.92270  0.33726  1.0000
  C   C29       1.0  0.12846  0.17586  0.58443  1.0000
  C   C30       1.0  0.87152  0.82413  0.41557  1.0000
  N   N1        1.0  0.94637  0.05593  0.69670  1.0000
  N   N2        1.0  0.05362  0.94407  0.30329  1.0000
  O   O1        1.0  0.34667  0.51452  0.11522  1.0000
  O   O2        1.0  0.65335  0.48549  0.88478  1.0000
  O   O3        1.0  0.22332  0.69225  0.19342  1.0000
  O   O4        1.0  0.77670  0.30776  0.80658  1.0000
  O   O5        1.0  0.26513  0.49565  0.66382  1.0000
  O   O6        1.0  0.73486  0.50433  0.33618  1.0000
  O   O7        1.0  0.13184  0.65497  0.56458  1.0000
  O   O8        1.0  0.86816  0.34502  0.43542  1.0000
  O   O9        1.0  0.10512  0.76077  0.75424  1.0000
  O   O10       1.0  0.89487  0.23923  0.24576  1.0000
  O   O11       1.0  0.29206  0.91519  0.88250  1.0000
  O   O12       1.0  0.70794  0.08481  0.11750  1.0000
  O   O13       1.0  0.94293  0.02110  0.78938  1.0000
  O   O14       1.0  0.05705  0.97890  0.21062  1.0000
  O   O15       1.0  0.82482  0.07484  0.63395  1.0000
  O   O16       1.0  0.17517  0.92515  0.36604  1.0000
  O   O17       1.0  0.59521  0.78885  0.03145  1.0000
  O   O18       1.0  0.40479  0.21116  0.96854  1.0000
  O   O19       1.0  0.34223  0.51644  0.88310  1.0000
  O   O20       1.0  0.65779  0.48356  0.11691  1.0000
  O   O21       1.0  0.32880  0.98079  0.11200  1.0000
  O   O22       1.0  0.67118  0.01922  0.88799  1.0000
  O   O23       1.0  0.03469  0.63586  0.92814  1.0000
  O   O24       1.0  0.96533  0.36411  0.07186  1.0000
