data_image0
_chemical_formula_structural       Ba2V2H20C8O22
_chemical_formula_sum              "Ba2 V2 H20 C8 O22"
_cell_length_a       7.75021
_cell_length_b       8.44744
_cell_length_c       8.98773
_cell_angle_alpha    78.4629
_cell_angle_beta     68.4993
_cell_angle_gamma    83.1477

_space_group_name_H-M_alt    "P 1"
_space_group_IT_number       1

loop_
  _space_group_symop_operation_xyz
  'x, y, z'

loop_
  _atom_site_type_symbol
  _atom_site_label
  _atom_site_symmetry_multiplicity
  _atom_site_fract_x
  _atom_site_fract_y
  _atom_site_fract_z
  _atom_site_occupancy
  Ba  Ba1       1.0  0.40418  0.85380  0.27783  1.0000
  Ba  Ba2       1.0  0.59582  0.14620  0.72217  1.0000
  V   V1        1.0  0.96470  0.30820  0.88238  1.0000
  V   V2        1.0  0.03530  0.69180  0.11762  1.0000
  H   H1        1.0  0.78187  0.69830  0.71067  1.0000
  H   H2        1.0  0.21813  0.30169  0.28933  1.0000
  H   H3        1.0  0.98637  0.87453  0.72932  1.0000
  H   H4        1.0  0.01363  0.12547  0.27068  1.0000
  H   H5        1.0  0.24260  0.02423  0.58819  1.0000
  H   H6        1.0  0.75740  0.97577  0.41182  1.0000
  H   H7        1.0  0.08628  0.13413  0.53274  1.0000
  H   H8        1.0  0.91372  0.86587  0.46726  1.0000
  H   H9        1.0  0.50761  0.59086  0.62712  1.0000
  H   H10       1.0  0.49239  0.40914  0.37288  1.0000
  H   H11       1.0  0.66922  0.63637  0.46156  1.0000
  H   H12       1.0  0.33078  0.36363  0.53843  1.0000
  H   H13       1.0  0.72453  0.15597  0.21563  1.0000
  H   H14       1.0  0.27547  0.84403  0.78437  1.0000
  H   H15       1.0  0.54009  0.16523  0.36487  1.0000
  H   H16       1.0  0.45991  0.83477  0.63513  1.0000
  H   H17       1.0  0.39441  0.51950  0.15136  1.0000
  H   H18       1.0  0.60559  0.48050  0.84864  1.0000
  H   H19       1.0  0.61429  0.52517  0.09010  1.0000
  H   H20       1.0  0.38571  0.47483  0.90990  1.0000
  C   C1        1.0  0.05354  0.58146  0.63147  1.0000
  C   C2        1.0  0.94646  0.41854  0.36853  1.0000
  C   C3        1.0  0.88498  0.63829  0.76436  1.0000
  C   C4        1.0  0.11502  0.36171  0.23564  1.0000
  C   C5        1.0  0.94691  0.77066  0.82949  1.0000
  C   C6        1.0  0.05309  0.22934  0.17051  1.0000
  C   C7        1.0  0.77714  0.81915  0.96508  1.0000
  C   C8        1.0  0.22285  0.18085  0.03492  1.0000
  O   O1        1.0  0.12339  0.67111  0.49911  1.0000
  O   O2        1.0  0.87661  0.32889  0.50089  1.0000
  O   O3        1.0  0.62952  0.87297  0.94361  1.0000
  O   O4        1.0  0.37049  0.12703  0.05639  1.0000
  O   O5        1.0  0.11801  0.43542  0.67038  1.0000
  O   O6        1.0  0.88199  0.56458  0.32962  1.0000
  O   O7        1.0  0.79194  0.78933  0.10805  1.0000
  O   O8        1.0  0.20806  0.21067  0.89195  1.0000
  O   O9        1.0  0.80751  0.50691  0.88864  1.0000
  O   O10       1.0  0.19249  0.49309  0.11136  1.0000
  O   O11       1.0  0.09373  0.71569  0.88692  1.0000
  O   O12       1.0  0.90627  0.28431  0.11308  1.0000
  O   O13       1.0  0.13532  0.82945  0.15809  1.0000
  O   O14       1.0  0.86468  0.17055  0.84191  1.0000
  O   O15       1.0  0.18967  0.05467  0.50030  1.0000
  O   O16       1.0  0.81033  0.94533  0.49970  1.0000
  O   O17       1.0  0.54127  0.67245  0.52588  1.0000
  O   O18       1.0  0.45873  0.32754  0.47412  1.0000
  O   O19       1.0  0.62472  0.08685  0.29842  1.0000
  O   O20       1.0  0.37529  0.91314  0.70158  1.0000
  O   O21       1.0  0.49934  0.53708  0.18434  1.0000
  O   O22       1.0  0.50067  0.46292  0.81566  1.0000
