data_image0
_chemical_formula_structural       Co2H24C34N6O10
_chemical_formula_sum              "Co2 H24 C34 N6 O10"
_cell_length_a       9.65909
_cell_length_b       9.84714
_cell_length_c       10.0887
_cell_angle_alpha    102.87
_cell_angle_beta     110.294
_cell_angle_gamma    114.249

_space_group_name_H-M_alt    "P 1"
_space_group_IT_number       1

loop_
  _space_group_symop_operation_xyz
  'x, y, z'

loop_
  _atom_site_type_symbol
  _atom_site_label
  _atom_site_symmetry_multiplicity
  _atom_site_fract_x
  _atom_site_fract_y
  _atom_site_fract_z
  _atom_site_occupancy
  Co  Co1       1.0  0.07456  0.23965  0.92070  1.0000
  Co  Co2       1.0  0.92544  0.76035  0.07930  1.0000
  H   H1        1.0  0.74472  0.98687  0.32560  1.0000
  H   H2        1.0  0.25529  0.01313  0.67441  1.0000
  H   H3        1.0  0.39823  0.47666  0.84204  1.0000
  H   H4        1.0  0.60178  0.52334  0.15796  1.0000
  H   H5        1.0  0.15272  0.50476  0.69439  1.0000
  H   H6        1.0  0.84727  0.49523  0.30560  1.0000
  H   H7        1.0  0.02491  0.41809  0.40823  1.0000
  H   H8        1.0  0.97509  0.58191  0.59177  1.0000
  H   H9        1.0  0.13660  0.29681  0.25868  1.0000
  H   H10       1.0  0.86340  0.70319  0.74132  1.0000
  H   H11       1.0  0.54726  0.09420  0.30314  1.0000
  H   H12       1.0  0.45274  0.90580  0.69686  1.0000
  H   H13       1.0  0.96350  0.05183  0.59187  1.0000
  H   H14       1.0  0.03650  0.94818  0.40813  1.0000
  H   H15       1.0  0.82073  0.33823  0.80768  1.0000
  H   H16       1.0  0.17927  0.66178  0.19232  1.0000
  H   H17       1.0  0.59527  0.28446  0.02749  1.0000
  H   H18       1.0  0.40472  0.71554  0.97251  1.0000
  H   H19       1.0  0.40184  0.22977  0.31108  1.0000
  H   H20       1.0  0.59817  0.77023  0.68892  1.0000
  H   H21       1.0  0.19077  0.53799  0.97227  1.0000
  H   H22       1.0  0.80923  0.46201  0.02773  1.0000
  H   H23       1.0  0.32247  0.54473  0.13166  1.0000
  H   H24       1.0  0.67753  0.45527  0.86834  1.0000
  C   C1        1.0  0.40670  0.37293  0.63292  1.0000
  C   C2        1.0  0.59330  0.62707  0.36708  1.0000
  C   C3        1.0  0.75481  0.06309  0.42931  1.0000
  C   C4        1.0  0.24520  0.93691  0.57069  1.0000
  C   C5        1.0  0.34275  0.43904  0.71654  1.0000
  C   C6        1.0  0.65725  0.56096  0.28346  1.0000
  C   C7        1.0  0.20551  0.45401  0.63256  1.0000
  C   C8        1.0  0.79450  0.54599  0.36744  1.0000
  C   C9        1.0  0.13209  0.40398  0.46948  1.0000
  C   C10       1.0  0.86791  0.59602  0.53052  1.0000
  C   C11       1.0  0.19232  0.33613  0.38417  1.0000
  C   C12       1.0  0.80768  0.66387  0.61583  1.0000
  C   C13       1.0  0.33004  0.32114  0.46887  1.0000
  C   C14       1.0  0.66996  0.67886  0.53113  1.0000
  C   C15       1.0  0.54770  0.27997  0.55548  1.0000
  C   C16       1.0  0.45230  0.72003  0.44452  1.0000
  C   C17       1.0  0.66457  0.22223  0.55503  1.0000
  C   C18       1.0  0.33543  0.77776  0.44496  1.0000
  C   C19       1.0  0.64643  0.12440  0.41780  1.0000
  C   C20       1.0  0.35357  0.87560  0.58220  1.0000
  C   C21       1.0  0.87849  0.09994  0.57638  1.0000
  C   C22       1.0  0.12151  0.90006  0.42362  1.0000
  C   C23       1.0  0.79656  0.25782  0.69820  1.0000
  C   C24       1.0  0.20344  0.74218  0.30180  1.0000
  C   C25       1.0  0.83580  0.21255  0.03069  1.0000
  C   C26       1.0  0.16420  0.78744  0.96931  1.0000
  C   C27       1.0  0.72093  0.86849  0.00482  1.0000
  C   C28       1.0  0.27907  0.13150  0.99517  1.0000
  C   C29       1.0  0.66533  0.10282  0.01899  1.0000
  C   C30       1.0  0.33467  0.89717  0.98101  1.0000
  C   C31       1.0  0.61069  0.94077  0.00273  1.0000
  C   C32       1.0  0.38931  0.05922  0.99727  1.0000
  C   C33       1.0  0.55357  0.15965  0.01620  1.0000
  C   C34       1.0  0.44643  0.84034  0.98379  1.0000
  N   N1        1.0  0.90006  0.19741  0.70903  1.0000
  N   N2        1.0  0.09994  0.80260  0.29097  1.0000
  N   N3        1.0  0.54220  0.34675  0.68346  1.0000
  N   N4        1.0  0.45780  0.65326  0.31654  1.0000
  N   N5        1.0  0.42124  0.26175  0.42393  1.0000
  N   N6        1.0  0.57877  0.73825  0.57607  1.0000
  O   O1        1.0  0.24448  0.47642  0.01211  1.0000
  O   O2        1.0  0.75552  0.52358  0.98789  1.0000
  O   O3        1.0  0.90828  0.13994  0.98922  1.0000
  O   O4        1.0  0.09172  0.86006  0.01077  1.0000
  O   O5        1.0  0.89946  0.36554  0.07540  1.0000
  O   O6        1.0  0.10054  0.63445  0.92459  1.0000
  O   O7        1.0  0.83018  0.89272  0.13929  1.0000
  O   O8        1.0  0.16982  0.10728  0.86070  1.0000
  O   O9        1.0  0.69619  0.77695  0.87921  1.0000
  O   O10       1.0  0.30381  0.22304  0.12079  1.0000
