data_image0
_chemical_formula_structural       Ag4H28C32O12
_chemical_formula_sum              "Ag4 H28 C32 O12"
_cell_length_a       4.72707
_cell_length_b       10.1772
_cell_length_c       16.3384
_cell_angle_alpha    96.5632
_cell_angle_beta     89.9994
_cell_angle_gamma    90.0008

_space_group_name_H-M_alt    "P 1"
_space_group_IT_number       1

loop_
  _space_group_symop_operation_xyz
  'x, y, z'

loop_
  _atom_site_type_symbol
  _atom_site_label
  _atom_site_symmetry_multiplicity
  _atom_site_fract_x
  _atom_site_fract_y
  _atom_site_fract_z
  _atom_site_occupancy
  Ag  Ag1       1.0  0.01209  0.38238  0.53429  1.0000
  Ag  Ag2       1.0  0.51208  0.11763  0.46571  1.0000
  Ag  Ag3       1.0  0.98791  0.61763  0.46571  1.0000
  Ag  Ag4       1.0  0.48790  0.88237  0.53429  1.0000
  H   H1        1.0  0.07147  0.20695  0.35908  1.0000
  H   H2        1.0  0.57146  0.29305  0.64092  1.0000
  H   H3        1.0  0.92853  0.79305  0.64092  1.0000
  H   H4        1.0  0.42854  0.70695  0.35908  1.0000
  H   H5        1.0  0.16953  0.50908  0.21967  1.0000
  H   H6        1.0  0.66949  0.99093  0.78033  1.0000
  H   H7        1.0  0.83050  0.49093  0.78034  1.0000
  H   H8        1.0  0.33049  0.00908  0.21967  1.0000
  H   H9        1.0  0.30008  0.49513  0.07177  1.0000
  H   H10       1.0  0.80005  0.00486  0.92822  1.0000
  H   H11       1.0  0.69994  0.50486  0.92823  1.0000
  H   H12       1.0  0.19994  0.99514  0.07178  1.0000
  H   H13       1.0  0.64967  0.32474  0.01283  1.0000
  H   H14       1.0  0.14967  0.17526  0.98716  1.0000
  H   H15       1.0  0.35032  0.67526  0.98717  1.0000
  H   H16       1.0  0.85033  0.82475  0.01284  1.0000
  H   H17       1.0  0.85065  0.16585  0.10199  1.0000
  H   H18       1.0  0.35065  0.33415  0.89801  1.0000
  H   H19       1.0  0.14934  0.83414  0.89801  1.0000
  H   H20       1.0  0.64935  0.66585  0.10199  1.0000
  H   H21       1.0  0.70870  0.17584  0.24826  1.0000
  H   H22       1.0  0.20869  0.32416  0.75174  1.0000
  H   H23       1.0  0.29131  0.82415  0.75174  1.0000
  H   H24       1.0  0.79131  0.67584  0.24826  1.0000
  H   H25       1.0  0.16130  0.41377  0.34490  1.0000
  H   H26       1.0  0.66128  0.08623  0.65510  1.0000
  H   H27       1.0  0.83871  0.58623  0.65510  1.0000
  H   H28       1.0  0.33871  0.91378  0.34490  1.0000
  C   C1        1.0  0.43095  0.34371  0.24326  1.0000
  C   C2        1.0  0.93093  0.15629  0.75674  1.0000
  C   C3        1.0  0.56906  0.65629  0.75674  1.0000
  C   C4        1.0  0.06906  0.84371  0.24326  1.0000
  C   C5        1.0  0.31871  0.43396  0.19360  1.0000
  C   C6        1.0  0.81868  0.06604  0.80641  1.0000
  C   C7        1.0  0.68131  0.56604  0.80641  1.0000
  C   C8        1.0  0.18132  0.93396  0.19359  1.0000
  C   C9        1.0  0.39526  0.42675  0.11063  1.0000
  C   C10       1.0  0.89525  0.07325  0.88937  1.0000
  C   C11       1.0  0.60475  0.57325  0.88937  1.0000
  C   C12       1.0  0.10475  0.92675  0.11063  1.0000
  C   C13       1.0  0.58752  0.33083  0.07743  1.0000
  C   C14       1.0  0.08751  0.16916  0.92257  1.0000
  C   C15       1.0  0.41249  0.66916  0.92257  1.0000
  C   C16       1.0  0.91249  0.83084  0.07743  1.0000
  C   C17       1.0  0.70099  0.24116  0.12724  1.0000
  C   C18       1.0  0.20098  0.25883  0.87276  1.0000
  C   C19       1.0  0.29902  0.75883  0.87276  1.0000
  C   C20       1.0  0.79902  0.74117  0.12724  1.0000
  C   C21       1.0  0.62301  0.24726  0.20981  1.0000
  C   C22       1.0  0.12299  0.25274  0.79019  1.0000
  C   C23       1.0  0.37700  0.75273  0.79019  1.0000
  C   C24       1.0  0.87700  0.74726  0.20981  1.0000
  C   C25       1.0  0.34346  0.34702  0.33269  1.0000
  C   C26       1.0  0.84345  0.15298  0.66731  1.0000
  C   C27       1.0  0.65655  0.65298  0.66731  1.0000
  C   C28       1.0  0.15655  0.84703  0.33269  1.0000
  C   C29       1.0  0.58503  0.40533  0.38873  1.0000
  C   C30       1.0  0.08502  0.09467  0.61126  1.0000
  C   C31       1.0  0.41497  0.59467  0.61127  1.0000
  C   C32       1.0  0.91497  0.90533  0.38874  1.0000
  O   O1        1.0  0.72698  0.32601  0.42796  1.0000
  O   O2        1.0  0.22696  0.17399  0.57204  1.0000
  O   O3        1.0  0.27302  0.67399  0.57204  1.0000
  O   O4        1.0  0.77302  0.82601  0.42796  1.0000
  O   O5        1.0  0.62960  0.52802  0.38994  1.0000
  O   O6        1.0  0.12959  0.97199  0.61006  1.0000
  O   O7        1.0  0.37040  0.47198  0.61007  1.0000
  O   O8        1.0  0.87040  0.02802  0.38994  1.0000
  O   O9        1.0  0.27537  0.21665  0.35147  1.0000
  O   O10       1.0  0.77536  0.28335  0.64853  1.0000
  O   O11       1.0  0.72463  0.78335  0.64852  1.0000
  O   O12       1.0  0.22463  0.71665  0.35148  1.0000
