data_image0
_chemical_formula_structural       Cd6H24C16N44
_chemical_formula_sum              "Cd6 H24 C16 N44"
_cell_length_a       8.24363
_cell_length_b       9.75752
_cell_length_c       14.3278
_cell_angle_alpha    81.9472
_cell_angle_beta     73.2872
_cell_angle_gamma    65.0126

_space_group_name_H-M_alt    "P 1"
_space_group_IT_number       1

loop_
  _space_group_symop_operation_xyz
  'x, y, z'

loop_
  _atom_site_type_symbol
  _atom_site_label
  _atom_site_symmetry_multiplicity
  _atom_site_fract_x
  _atom_site_fract_y
  _atom_site_fract_z
  _atom_site_occupancy
  Cd  Cd1       1.0  0.97259  0.96087  0.87319  1.0000
  Cd  Cd2       1.0  0.80665  0.53910  0.62680  1.0000
  Cd  Cd3       1.0  0.02741  0.03912  0.12681  1.0000
  Cd  Cd4       1.0  0.19335  0.46091  0.37319  1.0000
  Cd  Cd5       1.0  0.58171  0.24996  0.75000  1.0000
  Cd  Cd6       1.0  0.41829  0.75004  0.25000  1.0000
  H   H1        1.0  0.50232  0.78478  0.01482  1.0000
  H   H2        1.0  0.30203  0.71518  0.48517  1.0000
  H   H3        1.0  0.49768  0.21521  0.98517  1.0000
  H   H4        1.0  0.69796  0.28482  0.51484  1.0000
  H   H5        1.0  0.66513  0.80887  0.91519  1.0000
  H   H6        1.0  0.38926  0.69109  0.58483  1.0000
  H   H7        1.0  0.33487  0.19112  0.08481  1.0000
  H   H8        1.0  0.61074  0.30891  0.41517  1.0000
  H   H9        1.0  0.68331  0.87482  0.52609  1.0000
  H   H10       1.0  0.08425  0.62519  0.97385  1.0000
  H   H11       1.0  0.31670  0.12518  0.47391  1.0000
  H   H12       1.0  0.91576  0.37481  0.02615  1.0000
  H   H13       1.0  0.64199  0.05437  0.54338  1.0000
  H   H14       1.0  0.23968  0.44567  0.95660  1.0000
  H   H15       1.0  0.35802  0.94564  0.45662  1.0000
  H   H16       1.0  0.76033  0.55432  0.04340  1.0000
  H   H17       1.0  0.70788  0.90955  0.25344  1.0000
  H   H18       1.0  0.87099  0.59044  0.24655  1.0000
  H   H19       1.0  0.29210  0.09045  0.74656  1.0000
  H   H20       1.0  0.12900  0.40955  0.75345  1.0000
  H   H21       1.0  0.95091  0.65693  0.79100  1.0000
  H   H22       1.0  0.39908  0.84299  0.70899  1.0000
  H   H23       1.0  0.04910  0.34307  0.20900  1.0000
  H   H24       1.0  0.60092  0.15701  0.29101  1.0000
  C   C1        1.0  0.72222  0.89590  0.17718  1.0000
  C   C2        1.0  0.79527  0.60413  0.32280  1.0000
  C   C3        1.0  0.27777  0.10409  0.82283  1.0000
  C   C4        1.0  0.20473  0.39587  0.67720  1.0000
  C   C5        1.0  0.69181  0.83777  0.04704  1.0000
  C   C6        1.0  0.57669  0.66217  0.45295  1.0000
  C   C7        1.0  0.30819  0.16223  0.95297  1.0000
  C   C8        1.0  0.42331  0.33783  0.54705  1.0000
  C   C9        1.0  0.87947  0.75673  0.75086  1.0000
  C   C10       1.0  0.38704  0.74324  0.74908  1.0000
  C   C11       1.0  0.12054  0.24327  0.24913  1.0000
  C   C12       1.0  0.61296  0.25676  0.25093  1.0000
  C   C13       1.0  0.73545  0.90340  0.64915  1.0000
  C   C14       1.0  0.28813  0.59661  0.85084  1.0000
  C   C15       1.0  0.26455  0.09660  0.35085  1.0000
  C   C16       1.0  0.71187  0.40339  0.14917  1.0000
  N   N1        1.0  0.82452  0.89208  0.01938  1.0000
  N   N2        1.0  0.73607  0.60785  0.48059  1.0000
  N   N3        1.0  0.17548  0.10791  0.98062  1.0000
  N   N4        1.0  0.26392  0.39216  0.51941  1.0000
  N   N5        1.0  0.84144  0.93044  0.10487  1.0000
  N   N6        1.0  0.87676  0.56957  0.39509  1.0000
  N   N7        1.0  0.15855  0.06956  0.89514  1.0000
  N   N8        1.0  0.12324  0.43043  0.60491  1.0000
  N   N9        1.0  0.62630  0.83697  0.14516  1.0000
  N   N10       1.0  0.60841  0.66302  0.35483  1.0000
  N   N11       1.0  0.37370  0.16303  0.85484  1.0000
  N   N12       1.0  0.39159  0.33698  0.64517  1.0000
  N   N13       1.0  0.63416  0.77963  0.98709  1.0000
  N   N14       1.0  0.40099  0.72031  0.51292  1.0000
  N   N15       1.0  0.36584  0.22036  0.01290  1.0000
  N   N16       1.0  0.59901  0.27969  0.48708  1.0000
  N   N17       1.0  0.84450  0.89651  0.77202  1.0000
  N   N18       1.0  0.51299  0.60349  0.72795  1.0000
  N   N19       1.0  0.15551  0.10349  0.22798  1.0000
  N   N20       1.0  0.48701  0.39651  0.27205  1.0000
  N   N21       1.0  0.75131  0.99268  0.70634  1.0000
  N   N22       1.0  0.45041  0.50732  0.79369  1.0000
  N   N23       1.0  0.24870  0.00732  0.29366  1.0000
  N   N24       1.0  0.54959  0.49268  0.20631  1.0000
  N   N25       1.0  0.81334  0.75433  0.67516  1.0000
  N   N26       1.0  0.24285  0.74567  0.82481  1.0000
  N   N27       1.0  0.18667  0.24567  0.32484  1.0000
  N   N28       1.0  0.75715  0.25433  0.17519  1.0000
  N   N29       1.0  0.64392  0.95388  0.57672  1.0000
  N   N30       1.0  0.17453  0.54614  0.92324  1.0000
  N   N31       1.0  0.35609  0.04612  0.42328  1.0000
  N   N32       1.0  0.82548  0.45386  0.07676  1.0000
  N   N33       1.0  0.74444  0.21500  0.87503  1.0000
  N   N34       1.0  0.83446  0.28489  0.62497  1.0000
  N   N35       1.0  0.25555  0.78500  0.12498  1.0000
  N   N36       1.0  0.16553  0.71511  0.37502  1.0000
  N   N37       1.0  0.79621  0.31641  0.86507  1.0000
  N   N38       1.0  0.97768  0.18352  0.63496  1.0000
  N   N39       1.0  0.20379  0.68358  0.13493  1.0000
  N   N40       1.0  0.02231  0.81649  0.36504  1.0000
  N   N41       1.0  0.84390  0.41549  0.85492  1.0000
  N   N42       1.0  0.11430  0.08449  0.64515  1.0000
  N   N43       1.0  0.15610  0.58451  0.14509  1.0000
  N   N44       1.0  0.88570  0.91552  0.35484  1.0000
