data_image0
_chemical_formula_structural       CuH8C8S2N8
_chemical_formula_sum              "Cu1 H8 C8 S2 N8"
_cell_length_a       5.69695
_cell_length_b       6.47942
_cell_length_c       8.57004
_cell_angle_alpha    102.755
_cell_angle_beta     99.8965
_cell_angle_gamma    93.3386

_space_group_name_H-M_alt    "P 1"
_space_group_IT_number       1

loop_
  _space_group_symop_operation_xyz
  'x, y, z'

loop_
  _atom_site_type_symbol
  _atom_site_label
  _atom_site_symmetry_multiplicity
  _atom_site_fract_x
  _atom_site_fract_y
  _atom_site_fract_z
  _atom_site_occupancy
  Cu  Cu1       1.0  0.00000  0.00000  0.00000  1.0000
  H   H1        1.0  0.57386  0.97754  0.67631  1.0000
  H   H2        1.0  0.42613  0.02247  0.32370  1.0000
  H   H3        1.0  0.26012  0.31915  0.81633  1.0000
  H   H4        1.0  0.73987  0.68085  0.18367  1.0000
  H   H5        1.0  0.06713  0.30447  0.38411  1.0000
  H   H6        1.0  0.93286  0.69553  0.61589  1.0000
  H   H7        1.0  0.26067  0.46113  0.56303  1.0000
  H   H8        1.0  0.73932  0.53887  0.43697  1.0000
  C   C1        1.0  0.73241  0.07957  0.67741  1.0000
  C   C2        1.0  0.26760  0.92043  0.32259  1.0000
  C   C3        1.0  0.08270  0.24957  0.75087  1.0000
  C   C4        1.0  0.91731  0.75043  0.24913  1.0000
  C   C5        1.0  0.07346  0.40582  0.50587  1.0000
  C   C6        1.0  0.92652  0.59419  0.49412  1.0000
  C   C7        1.0  0.59506  0.25130  0.11820  1.0000
  C   C8        1.0  0.40492  0.74870  0.88181  1.0000
  S   S1        1.0  0.36411  0.37354  0.15536  1.0000
  S   S2        1.0  0.63589  0.62647  0.84464  1.0000
  N   N1        1.0  0.97876  0.27940  0.60556  1.0000
  N   N2        1.0  0.02125  0.72060  0.39443  1.0000
  N   N3        1.0  0.75568  0.17195  0.55642  1.0000
  N   N4        1.0  0.24433  0.82806  0.44359  1.0000
  N   N5        1.0  0.93037  0.12265  0.79893  1.0000
  N   N6        1.0  0.06964  0.87735  0.20108  1.0000
  N   N7        1.0  0.76853  0.16488  0.09674  1.0000
  N   N8        1.0  0.23148  0.83509  0.90325  1.0000
