data_image0
_chemical_formula_structural       Cu3H16C30N2O16
_chemical_formula_sum              "Cu3 H16 C30 N2 O16"
_cell_length_a       8.88159
_cell_length_b       8.95866
_cell_length_c       9.73358
_cell_angle_alpha    96.8655
_cell_angle_beta     105.325
_cell_angle_gamma    95.4406

_space_group_name_H-M_alt    "P 1"
_space_group_IT_number       1

loop_
  _space_group_symop_operation_xyz
  'x, y, z'

loop_
  _atom_site_type_symbol
  _atom_site_label
  _atom_site_symmetry_multiplicity
  _atom_site_fract_x
  _atom_site_fract_y
  _atom_site_fract_z
  _atom_site_occupancy
  Cu  Cu1       1.0  1.00000  1.00000  0.50000  1.0000
  Cu  Cu2       1.0  0.03914  0.62591  0.41324  1.0000
  Cu  Cu3       1.0  0.96086  0.37409  0.58676  1.0000
  H   H1        1.0  0.24310  0.45078  0.27660  1.0000
  H   H2        1.0  0.75690  0.54923  0.72340  1.0000
  H   H3        1.0  0.52336  0.48614  0.26879  1.0000
  H   H4        1.0  0.47664  0.51386  0.73120  1.0000
  H   H5        1.0  0.58826  0.91043  0.55211  1.0000
  H   H6        1.0  0.41174  0.08956  0.44789  1.0000
  H   H7        1.0  0.30688  0.85314  0.55537  1.0000
  H   H8        1.0  0.69312  0.14686  0.44463  1.0000
  H   H9        1.0  0.00696  0.68395  0.97622  1.0000
  H   H10       1.0  0.99303  0.31606  0.02378  1.0000
  H   H11       1.0  0.25947  0.11218  0.20978  1.0000
  H   H12       1.0  0.74054  0.88782  0.79022  1.0000
  H   H13       1.0  0.28079  0.96785  0.77825  1.0000
  H   H14       1.0  0.71921  0.03215  0.22175  1.0000
  H   H15       1.0  0.53293  0.29176  0.92405  1.0000
  H   H16       1.0  0.46707  0.70823  0.07594  1.0000
  C   C1        1.0  0.32455  0.54976  0.33695  1.0000
  C   C2        1.0  0.67544  0.45025  0.66305  1.0000
  C   C3        1.0  0.48011  0.57154  0.33212  1.0000
  C   C4        1.0  0.51989  0.42847  0.66787  1.0000
  C   C5        1.0  0.57660  0.70359  0.40851  1.0000
  C   C6        1.0  0.42340  0.29641  0.59149  1.0000
  C   C7        1.0  0.51501  0.80741  0.49015  1.0000
  C   C8        1.0  0.48499  0.19259  0.50986  1.0000
  C   C9        1.0  0.35972  0.77614  0.49264  1.0000
  C   C10       1.0  0.64028  0.22386  0.50736  1.0000
  C   C11       1.0  0.74580  0.73426  0.40868  1.0000
  C   C12       1.0  0.25420  0.26575  0.59132  1.0000
  C   C13       1.0  0.13700  0.81428  0.86180  1.0000
  C   C14       1.0  0.86300  0.18572  0.13820  1.0000
  C   C15       1.0  0.08390  0.78765  0.98092  1.0000
  C   C16       1.0  0.91610  0.21235  0.01908  1.0000
  C   C17       1.0  0.12585  0.89541  0.10604  1.0000
  C   C18       1.0  0.87416  0.10459  0.89396  1.0000
  C   C19       1.0  0.22644  0.02725  0.11355  1.0000
  C   C20       1.0  0.77356  0.97275  0.88645  1.0000
  C   C21       1.0  0.28613  0.05092  0.99713  1.0000
  C   C22       1.0  0.71387  0.94907  0.00287  1.0000
  C   C23       1.0  0.23941  0.94588  0.87040  1.0000
  C   C24       1.0  0.76059  0.05412  0.12960  1.0000
  C   C25       1.0  0.08031  0.70324  0.72454  1.0000
  C   C26       1.0  0.91969  0.29676  0.27546  1.0000
  C   C27       1.0  0.39849  0.18952  0.01386  1.0000
  C   C28       1.0  0.60152  0.81049  0.98615  1.0000
  C   C29       1.0  0.06104  0.86587  0.22985  1.0000
  C   C30       1.0  0.93896  0.13413  0.77016  1.0000
  N   N1        1.0  0.26574  0.64989  0.41656  1.0000
  N   N2        1.0  0.73426  0.35012  0.58344  1.0000
  O   O1        1.0  0.81818  0.61821  0.41129  1.0000
  O   O2        1.0  0.18182  0.38179  0.58871  1.0000
  O   O3        1.0  0.79668  0.87142  0.40902  1.0000
  O   O4        1.0  0.20332  0.12859  0.59098  1.0000
  O   O5        1.0  0.01338  0.57432  0.73082  1.0000
  O   O6        1.0  0.98662  0.42568  0.26918  1.0000
  O   O7        1.0  0.10335  0.75039  0.61138  1.0000
  O   O8        1.0  0.89665  0.24961  0.38862  1.0000
  O   O9        1.0  0.98897  0.73623  0.22281  1.0000
  O   O10       1.0  0.01104  0.26377  0.77719  1.0000
  O   O11       1.0  0.08937  0.97666  0.33442  1.0000
  O   O12       1.0  0.91063  0.02334  0.66558  1.0000
  O   O13       1.0  0.45834  0.19826  0.90006  1.0000
  O   O14       1.0  0.54166  0.80173  0.09993  1.0000
  O   O15       1.0  0.43756  0.28740  0.12076  1.0000
  O   O16       1.0  0.56244  0.71259  0.87922  1.0000
