data_image0
_chemical_formula_structural       Ag2H12C16N2O14
_chemical_formula_sum              "Ag2 H12 C16 N2 O14"
_cell_length_a       7.51077
_cell_length_b       7.93652
_cell_length_c       8.50809
_cell_angle_alpha    78.5254
_cell_angle_beta     74.0324
_cell_angle_gamma    74.6686

_space_group_name_H-M_alt    "P 1"
_space_group_IT_number       1

loop_
  _space_group_symop_operation_xyz
  'x, y, z'

loop_
  _atom_site_type_symbol
  _atom_site_label
  _atom_site_symmetry_multiplicity
  _atom_site_fract_x
  _atom_site_fract_y
  _atom_site_fract_z
  _atom_site_occupancy
  Ag  Ag1       1.0  0.75399  0.67162  0.10285  1.0000
  Ag  Ag2       1.0  0.24601  0.32838  0.89715  1.0000
  H   H1        1.0  0.07353  0.25564  0.59848  1.0000
  H   H2        1.0  0.92647  0.74436  0.40153  1.0000
  H   H3        1.0  0.06714  0.70794  0.77770  1.0000
  H   H4        1.0  0.93286  0.29206  0.22230  1.0000
  H   H5        1.0  0.69266  0.45235  0.40865  1.0000
  H   H6        1.0  0.30734  0.54765  0.59135  1.0000
  H   H7        1.0  0.58841  0.64959  0.43026  1.0000
  H   H8        1.0  0.41159  0.35040  0.56974  1.0000
  H   H9        1.0  0.42443  0.01785  0.32431  1.0000
  H   H10       1.0  0.57557  0.98215  0.67569  1.0000
  H   H11       1.0  0.57882  0.59251  0.80395  1.0000
  H   H12       1.0  0.42119  0.40748  0.19605  1.0000
  C   C1        1.0  0.62263  0.10559  0.07521  1.0000
  C   C2        1.0  0.37737  0.89441  0.92479  1.0000
  C   C3        1.0  0.78416  0.06194  0.92631  1.0000
  C   C4        1.0  0.21585  0.93806  0.07369  1.0000
  C   C5        1.0  0.85423  0.19817  0.81368  1.0000
  C   C6        1.0  0.14577  0.80182  0.18632  1.0000
  C   C7        1.0  0.77875  0.38899  0.83666  1.0000
  C   C8        1.0  0.22125  0.61101  0.16335  1.0000
  C   C9        1.0  0.01141  0.15346  0.68452  1.0000
  C   C10       1.0  0.98859  0.84654  0.31548  1.0000
  C   C11       1.0  0.09213  0.97548  0.66966  1.0000
  C   C12       1.0  0.90787  0.02452  0.33034  1.0000
  C   C13       1.0  0.26334  0.92139  0.53572  1.0000
  C   C14       1.0  0.73667  0.07861  0.46428  1.0000
  C   C15       1.0  0.01088  0.84827  0.78492  1.0000
  C   C16       1.0  0.98912  0.15173  0.21508  1.0000
  N   N1        1.0  0.86173  0.89103  0.90993  1.0000
  N   N2        1.0  0.13827  0.10897  0.09007  1.0000
  O   O1        1.0  0.57035  0.97838  0.17976  1.0000
  O   O2        1.0  0.42964  0.02162  0.82024  1.0000
  O   O3        1.0  0.55501  0.26755  0.08357  1.0000
  O   O4        1.0  0.44499  0.73245  0.91643  1.0000
  O   O5        1.0  0.63851  0.47156  0.76516  1.0000
  O   O6        1.0  0.36149  0.52844  0.23484  1.0000
  O   O7        1.0  0.85988  0.45926  0.90584  1.0000
  O   O8        1.0  0.14012  0.54074  0.09416  1.0000
  O   O9        1.0  0.31015  0.05414  0.42740  1.0000
  O   O10       1.0  0.68985  0.94586  0.57259  1.0000
  O   O11       1.0  0.35016  0.76439  0.53145  1.0000
  O   O12       1.0  0.64985  0.23561  0.46855  1.0000
  O   O13       1.0  0.70970  0.57476  0.37812  1.0000
  O   O14       1.0  0.29030  0.42523  0.62188  1.0000
