data_image0
_chemical_formula_structural       Zn6H12C20O20
_chemical_formula_sum              "Zn6 H12 C20 O20"
_cell_length_a       5.16468
_cell_length_b       9.54429
_cell_length_c       14.2306
_cell_angle_alpha    94.1039
_cell_angle_beta     100.481
_cell_angle_gamma    105.728

_space_group_name_H-M_alt    "P 1"
_space_group_IT_number       1

loop_
  _space_group_symop_operation_xyz
  'x, y, z'

loop_
  _atom_site_type_symbol
  _atom_site_label
  _atom_site_symmetry_multiplicity
  _atom_site_fract_x
  _atom_site_fract_y
  _atom_site_fract_z
  _atom_site_occupancy
  Zn  Zn1       1.0  0.02290  0.75055  0.74953  1.0000
  Zn  Zn2       1.0  0.97711  0.24944  0.25048  1.0000
  Zn  Zn3       1.0  0.33407  0.16328  0.79654  1.0000
  Zn  Zn4       1.0  0.87569  0.33801  0.70414  1.0000
  Zn  Zn5       1.0  0.66595  0.83672  0.20346  1.0000
  Zn  Zn6       1.0  0.12433  0.66199  0.29586  1.0000
  H   H1        1.0  0.83460  0.63187  0.88500  1.0000
  H   H2        1.0  0.81731  0.86981  0.61427  1.0000
  H   H3        1.0  0.16536  0.36807  0.11498  1.0000
  H   H4        1.0  0.18272  0.13022  0.38574  1.0000
  H   H5        1.0  0.57341  0.67812  0.83692  1.0000
  H   H6        1.0  0.55798  0.82281  0.66226  1.0000
  H   H7        1.0  0.42659  0.32188  0.16308  1.0000
  H   H8        1.0  0.44204  0.17719  0.33775  1.0000
  H   H9        1.0  0.64103  0.77447  0.01214  1.0000
  H   H10       1.0  0.35412  0.72519  0.48701  1.0000
  H   H11       1.0  0.35897  0.22552  0.98786  1.0000
  H   H12       1.0  0.64588  0.27482  0.51298  1.0000
  C   C1        1.0  0.72453  0.96458  0.93944  1.0000
  C   C2        1.0  0.32066  0.53582  0.56044  1.0000
  C   C3        1.0  0.27547  0.03542  0.06056  1.0000
  C   C4        1.0  0.67933  0.46418  0.43955  1.0000
  C   C5        1.0  0.93932  0.10000  0.93494  1.0000
  C   C6        1.0  0.40482  0.40057  0.56541  1.0000
  C   C7        1.0  0.06069  0.90000  0.06506  1.0000
  C   C8        1.0  0.59517  0.59944  0.43459  1.0000
  C   C9        1.0  0.79944  0.87509  0.00851  1.0000
  C   C10       1.0  0.41560  0.62471  0.49104  1.0000
  C   C11       1.0  0.20057  0.12490  0.99149  1.0000
  C   C12       1.0  0.58439  0.37530  0.50896  1.0000
  C   C13       1.0  0.47375  0.90073  0.87169  1.0000
  C   C14       1.0  0.20146  0.59997  0.62793  1.0000
  C   C15       1.0  0.52625  0.09927  0.12832  1.0000
  C   C16       1.0  0.79853  0.40004  0.37207  1.0000
  C   C17       1.0  0.89684  0.21602  0.87954  1.0000
  C   C18       1.0  0.30216  0.28496  0.62114  1.0000
  C   C19       1.0  0.10317  0.78397  0.12046  1.0000
  C   C20       1.0  0.69784  0.71505  0.37886  1.0000
  O   O1        1.0  0.34465  0.75995  0.86552  1.0000
  O   O2        1.0  0.21860  0.74064  0.63356  1.0000
  O   O3        1.0  0.65536  0.24005  0.13448  1.0000
  O   O4        1.0  0.78141  0.25939  0.36644  1.0000
  O   O5        1.0  0.35127  0.96650  0.80554  1.0000
  O   O6        1.0  0.07992  0.53462  0.69431  1.0000
  O   O7        1.0  0.64873  0.03349  0.19446  1.0000
  O   O8        1.0  0.92004  0.46537  0.30569  1.0000
  O   O9        1.0  0.72830  0.63921  0.82241  1.0000
  O   O10       1.0  0.76638  0.86187  0.67683  1.0000
  O   O11       1.0  0.27168  0.36077  0.17758  1.0000
  O   O12       1.0  0.23363  0.13813  0.32318  1.0000
  O   O13       1.0  0.69781  0.27171  0.87853  1.0000
  O   O14       1.0  0.04842  0.22924  0.62231  1.0000
  O   O15       1.0  0.30221  0.72829  0.12147  1.0000
  O   O16       1.0  0.95159  0.77077  0.37768  1.0000
  O   O17       1.0  0.07603  0.27114  0.82466  1.0000
  O   O18       1.0  0.48139  0.23021  0.67615  1.0000
  O   O19       1.0  0.92397  0.72884  0.17534  1.0000
  O   O20       1.0  0.51859  0.76980  0.32384  1.0000
