data_image0
_chemical_formula_structural       In6H18C18O36
_chemical_formula_sum              "In6 H18 C18 O36"
_cell_length_a       6.94866
_cell_length_b       12.6225
_cell_length_c       12.6225
_cell_angle_alpha    120
_cell_angle_beta     89.9999
_cell_angle_gamma    90

_space_group_name_H-M_alt    "P 1"
_space_group_IT_number       1

loop_
  _space_group_symop_operation_xyz
  'x, y, z'

loop_
  _atom_site_type_symbol
  _atom_site_label
  _atom_site_symmetry_multiplicity
  _atom_site_fract_x
  _atom_site_fract_y
  _atom_site_fract_z
  _atom_site_occupancy
  In  In1       1.0  0.99440  0.34462  0.01895  1.0000
  In  In2       1.0  0.99439  0.98105  0.32566  1.0000
  In  In3       1.0  0.99440  0.67433  0.65538  1.0000
  In  In4       1.0  0.49439  0.65538  0.98105  1.0000
  In  In5       1.0  0.49440  0.01895  0.67433  1.0000
  In  In6       1.0  0.49439  0.32566  0.34461  1.0000
  H   H1        1.0  0.71339  0.30581  0.79582  1.0000
  H   H2        1.0  0.71339  0.20418  0.50999  1.0000
  H   H3        1.0  0.71339  0.49002  0.69420  1.0000
  H   H4        1.0  0.21339  0.69419  0.20418  1.0000
  H   H5        1.0  0.21340  0.79582  0.49001  1.0000
  H   H6        1.0  0.21339  0.50999  0.30581  1.0000
  H   H7        1.0  0.73423  0.53909  0.22190  1.0000
  H   H8        1.0  0.73423  0.77810  0.31718  1.0000
  H   H9        1.0  0.73423  0.68281  0.46092  1.0000
  H   H10       1.0  0.23422  0.46092  0.77810  1.0000
  H   H11       1.0  0.23423  0.22190  0.68281  1.0000
  H   H12       1.0  0.23422  0.31718  0.53908  1.0000
  H   H13       1.0  0.31093  0.14060  0.98574  1.0000
  H   H14       1.0  0.31093  0.01426  0.15487  1.0000
  H   H15       1.0  0.31093  0.84514  0.85940  1.0000
  H   H16       1.0  0.81093  0.85940  0.01426  1.0000
  H   H17       1.0  0.81093  0.98574  0.84513  1.0000
  H   H18       1.0  0.81093  0.15487  0.14061  1.0000
  C   C1        1.0  0.67797  0.39597  0.87472  1.0000
  C   C2        1.0  0.67796  0.12528  0.52125  1.0000
  C   C3        1.0  0.67796  0.47875  0.60403  1.0000
  C   C4        1.0  0.17796  0.60403  0.12528  1.0000
  C   C5        1.0  0.17797  0.87472  0.47875  1.0000
  C   C6        1.0  0.17797  0.52125  0.39597  1.0000
  C   C7        1.0  0.71482  0.45998  0.23536  1.0000
  C   C8        1.0  0.71482  0.76464  0.22461  1.0000
  C   C9        1.0  0.71482  0.77538  0.54002  1.0000
  C   C10       1.0  0.21482  0.54002  0.76464  1.0000
  C   C11       1.0  0.21483  0.23536  0.77539  1.0000
  C   C12       1.0  0.21483  0.22461  0.45997  1.0000
  C   C13       1.0  0.32747  0.21703  0.08019  1.0000
  C   C14       1.0  0.32746  0.91982  0.13685  1.0000
  C   C15       1.0  0.32747  0.86315  0.78297  1.0000
  C   C16       1.0  0.82746  0.78297  0.91982  1.0000
  C   C17       1.0  0.82746  0.08018  0.86315  1.0000
  C   C18       1.0  0.82746  0.13685  0.21703  1.0000
  O   O1        1.0  0.23916  0.31704  0.11370  1.0000
  O   O2        1.0  0.23915  0.88629  0.20334  1.0000
  O   O3        1.0  0.23916  0.79666  0.68296  1.0000
  O   O4        1.0  0.73915  0.68296  0.88630  1.0000
  O   O5        1.0  0.73916  0.11370  0.79666  1.0000
  O   O6        1.0  0.73917  0.20334  0.31704  1.0000
  O   O7        1.0  0.74419  0.42630  0.97979  1.0000
  O   O8        1.0  0.74418  0.02020  0.44650  1.0000
  O   O9        1.0  0.74419  0.55350  0.57370  1.0000
  O   O10       1.0  0.24418  0.57370  0.02020  1.0000
  O   O11       1.0  0.24419  0.97979  0.55350  1.0000
  O   O12       1.0  0.24420  0.44650  0.42630  1.0000
  O   O13       1.0  0.43854  0.19862  0.14939  1.0000
  O   O14       1.0  0.43853  0.85061  0.04922  1.0000
  O   O15       1.0  0.43854  0.95078  0.80139  1.0000
  O   O16       1.0  0.93854  0.80139  0.85061  1.0000
  O   O17       1.0  0.93854  0.14939  0.95078  1.0000
  O   O18       1.0  0.93854  0.04922  0.19861  1.0000
  O   O19       1.0  0.81142  0.36323  0.17142  1.0000
  O   O20       1.0  0.81142  0.82858  0.19180  1.0000
  O   O21       1.0  0.81142  0.80819  0.63677  1.0000
  O   O22       1.0  0.31141  0.63677  0.82858  1.0000
  O   O23       1.0  0.31142  0.17142  0.80819  1.0000
  O   O24       1.0  0.31143  0.19181  0.36323  1.0000
  O   O25       1.0  0.59270  0.47349  0.31624  1.0000
  O   O26       1.0  0.59269  0.68376  0.15725  1.0000
  O   O27       1.0  0.59269  0.84275  0.52651  1.0000
  O   O28       1.0  0.09269  0.52651  0.68376  1.0000
  O   O29       1.0  0.09269  0.31624  0.84275  1.0000
  O   O30       1.0  0.09269  0.15725  0.47348  1.0000
  O   O31       1.0  0.56820  0.46363  0.85323  1.0000
  O   O32       1.0  0.56820  0.14678  0.61041  1.0000
  O   O33       1.0  0.56821  0.38959  0.53637  1.0000
  O   O34       1.0  0.06820  0.53637  0.14677  1.0000
  O   O35       1.0  0.06820  0.85322  0.38960  1.0000
  O   O36       1.0  0.06821  0.61040  0.46363  1.0000
