data_image0
_chemical_formula_structural       Co3H20C14N2O18
_chemical_formula_sum              "Co3 H20 C14 N2 O18"
_cell_length_a       7.19355
_cell_length_b       8.36967
_cell_length_c       9.40845
_cell_angle_alpha    110.201
_cell_angle_beta     100.812
_cell_angle_gamma    94.5627

_space_group_name_H-M_alt    "P 1"
_space_group_IT_number       1

loop_
  _space_group_symop_operation_xyz
  'x, y, z'

loop_
  _atom_site_type_symbol
  _atom_site_label
  _atom_site_symmetry_multiplicity
  _atom_site_fract_x
  _atom_site_fract_y
  _atom_site_fract_z
  _atom_site_occupancy
  Co  Co1       1.0  0.99989  0.99997  0.00002  1.0000
  Co  Co2       1.0  0.61183  0.85982  0.37103  1.0000
  Co  Co3       1.0  0.39008  0.14036  0.63008  1.0000
  H   H1        1.0  0.12250  0.40620  0.40175  1.0000
  H   H2        1.0  0.87655  0.59451  0.59760  1.0000
  H   H3        1.0  0.51325  0.21435  0.10528  1.0000
  H   H4        1.0  0.48675  0.78551  0.89525  1.0000
  H   H5        1.0  0.95721  0.85921  0.52255  1.0000
  H   H6        1.0  0.04431  0.14118  0.47910  1.0000
  H   H7        1.0  0.82665  0.90837  0.64587  1.0000
  H   H8        1.0  0.17386  0.09197  0.35532  1.0000
  H   H9        1.0  0.38288  0.76911  0.08446  1.0000
  H   H10       1.0  0.61691  0.23103  0.91633  1.0000
  H   H11       1.0  0.36756  0.96736  0.17802  1.0000
  H   H12       1.0  0.63269  0.03259  0.82278  1.0000
  H   H13       1.0  0.17908  0.86205  0.75638  1.0000
  H   H14       1.0  0.82141  0.13778  0.24394  1.0000
  H   H15       1.0  0.32189  0.02190  0.87892  1.0000
  H   H16       1.0  0.67833  0.97788  0.12172  1.0000
  H   H17       1.0  0.07801  0.25014  0.88519  1.0000
  H   H18       1.0  0.92211  0.74914  0.11416  1.0000
  H   H19       1.0  0.93388  0.31679  0.99881  1.0000
  H   H20       1.0  0.06625  0.68326  0.00028  1.0000
  C   C1        1.0  0.33332  0.58919  0.38218  1.0000
  C   C2        1.0  0.66587  0.41119  0.61685  1.0000
  C   C3        1.0  0.23949  0.42422  0.34733  1.0000
  C   C4        1.0  0.75957  0.57625  0.65192  1.0000
  C   C5        1.0  0.30051  0.28209  0.24320  1.0000
  C   C6        1.0  0.69891  0.71812  0.75666  1.0000
  C   C7        1.0  0.45495  0.31843  0.18047  1.0000
  C   C8        1.0  0.54454  0.68158  0.81937  1.0000
  C   C9        1.0  0.53566  0.48750  0.21734  1.0000
  C   C10       1.0  0.46360  0.51250  0.78195  1.0000
  C   C11       1.0  0.69714  0.53812  0.15329  1.0000
  C   C12       1.0  0.30242  0.46148  0.84594  1.0000
  C   C13       1.0  0.29370  0.74677  0.50114  1.0000
  C   C14       1.0  0.70629  0.25359  0.49846  1.0000
  N   N1        1.0  0.47642  0.62107  0.31671  1.0000
  N   N2        1.0  0.52287  0.37909  0.68237  1.0000
  O   O1        1.0  0.74612  0.42668  0.04286  1.0000
  O   O2        1.0  0.25288  0.57251  0.95623  1.0000
  O   O3        1.0  0.77440  0.69760  0.21672  1.0000
  O   O4        1.0  0.22599  0.30168  0.78249  1.0000
  O   O5        1.0  0.41885  0.88183  0.53535  1.0000
  O   O6        1.0  0.58161  0.11820  0.46466  1.0000
  O   O7        1.0  0.15254  0.74089  0.56174  1.0000
  O   O8        1.0  0.84768  0.25946  0.43819  1.0000
  O   O9        1.0  0.21903  0.12081  0.20709  1.0000
  O   O10       1.0  0.78087  0.87949  0.79350  1.0000
  O   O11       1.0  0.84792  0.91941  0.54586  1.0000
  O   O12       1.0  0.15279  0.08023  0.45505  1.0000
  O   O13       1.0  0.45782  0.88034  0.16336  1.0000
  O   O14       1.0  0.54237  0.11964  0.83709  1.0000
  O   O15       1.0  0.21351  0.93582  0.86934  1.0000
  O   O16       1.0  0.78653  0.06399  0.13098  1.0000
  O   O17       1.0  0.99879  0.21898  0.95115  1.0000
  O   O18       1.0  0.00116  0.78080  0.04831  1.0000
