data_image0
_chemical_formula_structural       Dy4H24C32N4O24
_chemical_formula_sum              "Dy4 H24 C32 N4 O24"
_cell_length_a       4.54003
_cell_length_b       14.0133
_cell_length_c       16.2404
_cell_angle_alpha    90
_cell_angle_beta     90.0001
_cell_angle_gamma    94.825

_space_group_name_H-M_alt    "P 1"
_space_group_IT_number       1

loop_
  _space_group_symop_operation_xyz
  'x, y, z'

loop_
  _atom_site_type_symbol
  _atom_site_label
  _atom_site_symmetry_multiplicity
  _atom_site_fract_x
  _atom_site_fract_y
  _atom_site_fract_z
  _atom_site_occupancy
  Dy  Dy1       1.0  0.75665  0.50235  0.09049  1.0000
  Dy  Dy2       1.0  0.74335  0.99765  0.59049  1.0000
  Dy  Dy3       1.0  0.24335  0.49765  0.90951  1.0000
  Dy  Dy4       1.0  0.25665  0.00235  0.40951  1.0000
  H   H1        1.0  0.61711  0.28211  0.32425  1.0000
  H   H2        1.0  0.88287  0.21789  0.82425  1.0000
  H   H3        1.0  0.38289  0.71789  0.67575  1.0000
  H   H4        1.0  0.11713  0.78211  0.17575  1.0000
  H   H5        1.0  0.12149  0.30523  0.54923  1.0000
  H   H6        1.0  0.37852  0.19477  0.04923  1.0000
  H   H7        1.0  0.87851  0.69477  0.45077  1.0000
  H   H8        1.0  0.62149  0.80523  0.95077  1.0000
  H   H9        1.0  0.26926  0.52004  0.36132  1.0000
  H   H10       1.0  0.23074  0.97996  0.86132  1.0000
  H   H11       1.0  0.73074  0.47996  0.63868  1.0000
  H   H12       1.0  0.76926  0.02004  0.13868  1.0000
  H   H13       1.0  0.32299  0.57575  0.20552  1.0000
  H   H14       1.0  0.17701  0.92425  0.70552  1.0000
  H   H15       1.0  0.67701  0.42425  0.79448  1.0000
  H   H16       1.0  0.82299  0.07575  0.29449  1.0000
  H   H17       1.0  0.62514  0.64402  0.21358  1.0000
  H   H18       1.0  0.87486  0.85598  0.71358  1.0000
  H   H19       1.0  0.37486  0.35598  0.78642  1.0000
  H   H20       1.0  0.12514  0.14402  0.28642  1.0000
  H   H21       1.0  0.75797  0.60053  0.94457  1.0000
  H   H22       1.0  0.74203  0.89947  0.44456  1.0000
  H   H23       1.0  0.24203  0.39947  0.05543  1.0000
  H   H24       1.0  0.25797  0.10053  0.55544  1.0000
  C   C1        1.0  0.93587  0.40490  0.33400  1.0000
  C   C2        1.0  0.56412  0.09510  0.83399  1.0000
  C   C3        1.0  0.06413  0.59510  0.66600  1.0000
  C   C4        1.0  0.43588  0.90490  0.16601  1.0000
  C   C5        1.0  0.78427  0.32018  0.36278  1.0000
  C   C6        1.0  0.71571  0.17982  0.86277  1.0000
  C   C7        1.0  0.21573  0.67982  0.63722  1.0000
  C   C8        1.0  0.28429  0.82018  0.13723  1.0000
  C   C9        1.0  0.85052  0.28389  0.44004  1.0000
  C   C10       1.0  0.64948  0.21612  0.94004  1.0000
  C   C11       1.0  0.14949  0.71611  0.55996  1.0000
  C   C12       1.0  0.35052  0.78389  0.05996  1.0000
  C   C13       1.0  0.06670  0.33299  0.48898  1.0000
  C   C14       1.0  0.43330  0.16701  0.98897  1.0000
  C   C15       1.0  0.93330  0.66701  0.51102  1.0000
  C   C16       1.0  0.56670  0.83299  0.01103  1.0000
  C   C17       1.0  0.21682  0.41794  0.46051  1.0000
  C   C18       1.0  0.28318  0.08206  0.96051  1.0000
  C   C19       1.0  0.78318  0.58207  0.53949  1.0000
  C   C20       1.0  0.71682  0.91794  0.03949  1.0000
  C   C21       1.0  0.15110  0.45398  0.38275  1.0000
  C   C22       1.0  0.34889  0.04602  0.88275  1.0000
  C   C23       1.0  0.84889  0.54602  0.61725  1.0000
  C   C24       1.0  0.65111  0.95398  0.11725  1.0000
  C   C25       1.0  0.86957  0.44148  0.25059  1.0000
  C   C26       1.0  0.63043  0.05851  0.75058  1.0000
  C   C27       1.0  0.13043  0.55852  0.74941  1.0000
  C   C28       1.0  0.36957  0.94149  0.24942  1.0000
  C   C29       1.0  0.70020  0.19052  0.46791  1.0000
  C   C30       1.0  0.79979  0.30948  0.96791  1.0000
  C   C31       1.0  0.29979  0.80948  0.53209  1.0000
  C   C32       1.0  0.20021  0.69052  0.03209  1.0000
  N   N1        1.0  0.43246  0.46215  0.51415  1.0000
  N   N2        1.0  0.06754  0.03785  0.01415  1.0000
  N   N3        1.0  0.56754  0.53785  0.48585  1.0000
  N   N4        1.0  0.93246  0.96215  0.98585  1.0000
  O   O1        1.0  0.67643  0.39602  0.20528  1.0000
  O   O2        1.0  0.82357  0.10398  0.70528  1.0000
  O   O3        1.0  0.32357  0.60398  0.79472  1.0000
  O   O4        1.0  0.17643  0.89602  0.29472  1.0000
  O   O5        1.0  0.00733  0.51979  0.22435  1.0000
  O   O6        1.0  0.49267  0.98021  0.72435  1.0000
  O   O7        1.0  0.99267  0.48021  0.77565  1.0000
  O   O8        1.0  0.50733  0.01979  0.27565  1.0000
  O   O9        1.0  0.47926  0.15518  0.42632  1.0000
  O   O10       1.0  0.02074  0.34482  0.92632  1.0000
  O   O11       1.0  0.52074  0.84482  0.57368  1.0000
  O   O12       1.0  0.97926  0.65518  0.07368  1.0000
  O   O13       1.0  0.80381  0.15113  0.53128  1.0000
  O   O14       1.0  0.69619  0.34887  0.03128  1.0000
  O   O15       1.0  0.19619  0.84887  0.46872  1.0000
  O   O16       1.0  0.30381  0.65113  0.96872  1.0000
  O   O17       1.0  0.50063  0.60542  0.17556  1.0000
  O   O18       1.0  0.99937  0.89457  0.67555  1.0000
  O   O19       1.0  0.49937  0.39458  0.82444  1.0000
  O   O20       1.0  0.00063  0.10543  0.32445  1.0000
  O   O21       1.0  0.75186  0.53057  0.94438  1.0000
  O   O22       1.0  0.74814  0.96943  0.44437  1.0000
  O   O23       1.0  0.24814  0.46943  0.05563  1.0000
  O   O24       1.0  0.25186  0.03057  0.55563  1.0000
