data_image0
_chemical_formula_structural       Dy2Cu3P6H24C30N6O18
_chemical_formula_sum              "Dy2 Cu3 P6 H24 C30 N6 O18"
_cell_length_a       10.1361
_cell_length_b       11.3162
_cell_length_c       11.3165
_cell_angle_alpha    111.486
_cell_angle_beta     107.374
_cell_angle_gamma    107.369

_space_group_name_H-M_alt    "P 1"
_space_group_IT_number       1

loop_
  _space_group_symop_operation_xyz
  'x, y, z'

loop_
  _atom_site_type_symbol
  _atom_site_label
  _atom_site_symmetry_multiplicity
  _atom_site_fract_x
  _atom_site_fract_y
  _atom_site_fract_z
  _atom_site_occupancy
  Dy  Dy1       1.0  0.99999  1.00000  1.00000  1.0000
  Dy  Dy2       1.0  0.50000  1.00000  1.00000  1.0000
  Cu  Cu1       1.0  1.00000  0.00000  0.50000  1.0000
  Cu  Cu2       1.0  1.00000  0.50000  1.00000  1.0000
  Cu  Cu3       1.0  0.49999  0.49999  0.50000  1.0000
  P   P1        1.0  0.15827  0.98542  0.75303  1.0000
  P   P2        1.0  0.17280  0.76759  0.01450  1.0000
  P   P3        1.0  0.40517  0.24690  0.23235  1.0000
  P   P4        1.0  0.84173  0.01458  0.24698  1.0000
  P   P5        1.0  0.82720  0.23241  0.98550  1.0000
  P   P6        1.0  0.59482  0.75309  0.76764  1.0000
  H   H1        1.0  0.02118  0.68433  0.70914  1.0000
  H   H2        1.0  0.33684  0.02483  0.31558  1.0000
  H   H3        1.0  0.31190  0.29078  0.97514  1.0000
  H   H4        1.0  0.97882  0.31567  0.29086  1.0000
  H   H5        1.0  0.66317  0.97518  0.68443  1.0000
  H   H6        1.0  0.68810  0.70922  0.02485  1.0000
  H   H7        1.0  0.78316  0.69522  0.26721  1.0000
  H   H8        1.0  0.08795  0.57201  0.30472  1.0000
  H   H9        1.0  0.51592  0.73267  0.42799  1.0000
  H   H10       1.0  0.21684  0.30478  0.73279  1.0000
  H   H11       1.0  0.91205  0.42799  0.69527  1.0000
  H   H12       1.0  0.48407  0.26732  0.57201  1.0000
  H   H13       1.0  0.71501  0.45390  0.25425  1.0000
  H   H14       1.0  0.26110  0.80034  0.54596  1.0000
  H   H15       1.0  0.46087  0.74569  0.19975  1.0000
  H   H16       1.0  0.28498  0.54610  0.74576  1.0000
  H   H17       1.0  0.73890  0.19966  0.45404  1.0000
  H   H18       1.0  0.53913  0.25431  0.80026  1.0000
  H   H19       1.0  0.82574  0.45078  0.48052  1.0000
  H   H20       1.0  0.37492  0.02970  0.54912  1.0000
  H   H21       1.0  0.34526  0.51950  0.97031  1.0000
  H   H22       1.0  0.17426  0.54922  0.51948  1.0000
  H   H23       1.0  0.62509  0.97030  0.45089  1.0000
  H   H24       1.0  0.65474  0.48051  0.02969  1.0000
  C   C1        1.0  0.96694  0.68084  0.60822  1.0000
  C   C2        1.0  0.28611  0.92738  0.31906  1.0000
  C   C3        1.0  0.35860  0.39170  0.07260  1.0000
  C   C4        1.0  0.03307  0.31915  0.39178  1.0000
  C   C5        1.0  0.71390  0.07263  0.68095  1.0000
  C   C6        1.0  0.64140  0.60830  0.92740  1.0000
  C   C7        1.0  0.00587  0.80825  0.60459  1.0000
  C   C8        1.0  0.19765  0.79632  0.19165  1.0000
  C   C9        1.0  0.40119  0.39530  0.20362  1.0000
  C   C10       1.0  0.99413  0.19174  0.39542  1.0000
  C   C11       1.0  0.80236  0.20368  0.80835  1.0000
  C   C12       1.0  0.59880  0.60470  0.79637  1.0000
  C   C13       1.0  0.83293  0.68441  0.35993  1.0000
  C   C14       1.0  0.14856  0.67551  0.31548  1.0000
  C   C15       1.0  0.47307  0.63997  0.32450  1.0000
  C   C16       1.0  0.16707  0.31559  0.64008  1.0000
  C   C17       1.0  0.85144  0.32450  0.68451  1.0000
  C   C18       1.0  0.52693  0.36002  0.67550  1.0000
  C   C19       1.0  0.79479  0.55348  0.35498  1.0000
  C   C20       1.0  0.24133  0.80149  0.44641  1.0000
  C   C21       1.0  0.43994  0.64496  0.19855  1.0000
  C   C22       1.0  0.20520  0.44653  0.64502  1.0000
  C   C23       1.0  0.75867  0.19851  0.55359  1.0000
  C   C24       1.0  0.56007  0.35504  0.80145  1.0000
  C   C25       1.0  0.85957  0.55228  0.48190  1.0000
  C   C26       1.0  0.30729  0.92962  0.44760  1.0000
  C   C27       1.0  0.37769  0.51804  0.07039  1.0000
  C   C28       1.0  0.14043  0.44772  0.51810  1.0000
  C   C29       1.0  0.69271  0.07038  0.55240  1.0000
  C   C30       1.0  0.62231  0.48196  0.92961  1.0000
  N   N1        1.0  0.93550  0.80816  0.48248  1.0000
  N   N2        1.0  0.12739  0.67430  0.19175  1.0000
  N   N3        1.0  0.45302  0.51741  0.32568  1.0000
  N   N4        1.0  0.06449  0.19184  0.51752  1.0000
  N   N5        1.0  0.87261  0.32571  0.80825  1.0000
  N   N6        1.0  0.54697  0.48258  0.67431  1.0000
  O   O1        1.0  0.18235  0.07333  0.67668  1.0000
  O   O2        1.0  0.10901  0.60333  0.92659  1.0000
  O   O3        1.0  0.50562  0.32325  0.39660  1.0000
  O   O4        1.0  0.81764  0.92666  0.32332  1.0000
  O   O5        1.0  0.89100  0.39667  0.07341  1.0000
  O   O6        1.0  0.49437  0.67674  0.60338  1.0000
  O   O7        1.0  0.30116  0.96735  0.81535  1.0000
  O   O8        1.0  0.33372  0.84803  0.03254  1.0000
  O   O9        1.0  0.48569  0.18456  0.15192  1.0000
  O   O10       1.0  0.69884  0.03265  0.18465  1.0000
  O   O11       1.0  0.66628  0.15197  0.96745  1.0000
  O   O12       1.0  0.51430  0.81543  0.84807  1.0000
  O   O13       1.0  0.09583  0.04139  0.85680  1.0000
  O   O14       1.0  0.05436  0.81538  0.95858  1.0000
  O   O15       1.0  0.23895  0.14313  0.18454  1.0000
  O   O16       1.0  0.90416  0.95861  0.14320  1.0000
  O   O17       1.0  0.94564  0.18462  0.04142  1.0000
  O   O18       1.0  0.76103  0.85686  0.81545  1.0000
