data_image0
_chemical_formula_structural       Nd2Cu3P6H24C30N6O18
_chemical_formula_sum              "Nd2 Cu3 P6 H24 C30 N6 O18"
_cell_length_a       10.3965
_cell_length_b       11.4456
_cell_length_c       11.4444
_cell_angle_alpha    111.254
_cell_angle_beta     107.621
_cell_angle_gamma    107.627

_space_group_name_H-M_alt    "P 1"
_space_group_IT_number       1

loop_
  _space_group_symop_operation_xyz
  'x, y, z'

loop_
  _atom_site_type_symbol
  _atom_site_label
  _atom_site_symmetry_multiplicity
  _atom_site_fract_x
  _atom_site_fract_y
  _atom_site_fract_z
  _atom_site_occupancy
  Nd  Nd1       1.0  0.50000  1.00000  1.00000  1.0000
  Nd  Nd2       1.0  0.99999  1.00000  1.00000  1.0000
  Cu  Cu1       1.0  1.00000  0.00000  0.50000  1.0000
  Cu  Cu2       1.0  1.00000  0.50000  0.00000  1.0000
  Cu  Cu3       1.0  0.49999  0.49999  0.49999  1.0000
  P   P1        1.0  0.17276  0.01495  0.76332  1.0000
  P   P2        1.0  0.15778  0.74841  0.98506  1.0000
  P   P3        1.0  0.40935  0.23661  0.25155  1.0000
  P   P4        1.0  0.82724  0.98506  0.23668  1.0000
  P   P5        1.0  0.84222  0.25159  0.01494  1.0000
  P   P6        1.0  0.59064  0.76338  0.74844  1.0000
  H   H1        1.0  0.33576  0.31144  0.01913  1.0000
  H   H2        1.0  0.02433  0.70770  0.68864  1.0000
  H   H3        1.0  0.31653  0.98083  0.29226  1.0000
  H   H4        1.0  0.66425  0.68856  0.98088  1.0000
  H   H5        1.0  0.97567  0.29230  0.31136  1.0000
  H   H6        1.0  0.68347  0.01916  0.70774  1.0000
  H   H7        1.0  0.37186  0.54356  0.02672  1.0000
  H   H8        1.0  0.82833  0.48321  0.45647  1.0000
  H   H9        1.0  0.34515  0.97330  0.51683  1.0000
  H   H10       1.0  0.62814  0.45645  0.97329  1.0000
  H   H11       1.0  0.17168  0.51678  0.54353  1.0000
  H   H12       1.0  0.65486  0.02670  0.48317  1.0000
  H   H13       1.0  0.25602  0.54190  0.80102  1.0000
  H   H14       1.0  0.71407  0.25913  0.45808  1.0000
  H   H15       1.0  0.45505  0.19898  0.74089  1.0000
  H   H16       1.0  0.74398  0.45810  0.19899  1.0000
  H   H17       1.0  0.28593  0.74087  0.54193  1.0000
  H   H18       1.0  0.54495  0.80102  0.25910  1.0000
  H   H19       1.0  0.08543  0.30396  0.57354  1.0000
  H   H20       1.0  0.78144  0.26958  0.69600  1.0000
  H   H21       1.0  0.51194  0.42646  0.73042  1.0000
  H   H22       1.0  0.91456  0.69604  0.42647  1.0000
  H   H23       1.0  0.21856  0.73043  0.30400  1.0000
  H   H24       1.0  0.48805  0.57354  0.26957  1.0000
  C   C1        1.0  0.19677  0.19030  0.79304  1.0000
  C   C2        1.0  0.00641  0.60274  0.80973  1.0000
  C   C3        1.0  0.40362  0.20690  0.39719  1.0000
  C   C4        1.0  0.80323  0.80970  0.20696  1.0000
  C   C5        1.0  0.99359  0.39726  0.19027  1.0000
  C   C6        1.0  0.59637  0.79309  0.60280  1.0000
  C   C7        1.0  0.28474  0.31585  0.92342  1.0000
  C   C8        1.0  0.96888  0.60757  0.68419  1.0000
  C   C9        1.0  0.36124  0.07654  0.39238  1.0000
  C   C10       1.0  0.71526  0.68415  0.07658  1.0000
  C   C11       1.0  0.03113  0.39243  0.31581  1.0000
  C   C12       1.0  0.63876  0.92346  0.60762  1.0000
  C   C13       1.0  0.30468  0.44344  0.92707  1.0000
  C   C14       1.0  0.86125  0.48364  0.55656  1.0000
  C   C15       1.0  0.37762  0.07295  0.51638  1.0000
  C   C16       1.0  0.69532  0.55656  0.07294  1.0000
  C   C17       1.0  0.13876  0.51637  0.44344  1.0000
  C   C18       1.0  0.62238  0.92705  0.48362  1.0000
  C   C19       1.0  0.23771  0.44295  0.80093  1.0000
  C   C20       1.0  0.79472  0.35798  0.55702  1.0000
  C   C21       1.0  0.43685  0.19910  0.64205  1.0000
  C   C22       1.0  0.76229  0.55705  0.19908  1.0000
  C   C23       1.0  0.20528  0.64202  0.44298  1.0000
  C   C24       1.0  0.56315  0.80090  0.35794  1.0000
  C   C25       1.0  0.14611  0.31379  0.67540  1.0000
  C   C26       1.0  0.83230  0.36162  0.68619  1.0000
  C   C27       1.0  0.47075  0.32461  0.63838  1.0000
  C   C28       1.0  0.85388  0.68621  0.32461  1.0000
  C   C29       1.0  0.16770  0.63839  0.31381  1.0000
  C   C30       1.0  0.52924  0.67539  0.36162  1.0000
  N   N1        1.0  0.12642  0.19093  0.67287  1.0000
  N   N2        1.0  0.93545  0.48194  0.80908  1.0000
  N   N3        1.0  0.45350  0.32709  0.51800  1.0000
  N   N4        1.0  0.87357  0.80907  0.32713  1.0000
  N   N5        1.0  0.06455  0.51806  0.19092  1.0000
  N   N6        1.0  0.54648  0.67290  0.48199  1.0000
  O   O1        1.0  0.11004  0.92891  0.60077  1.0000
  O   O2        1.0  0.18112  0.67191  0.07110  1.0000
  O   O3        1.0  0.50916  0.39916  0.32808  1.0000
  O   O4        1.0  0.88997  0.07110  0.39923  1.0000
  O   O5        1.0  0.81888  0.32810  0.92891  1.0000
  O   O6        1.0  0.49083  0.60083  0.67191  1.0000
  O   O7        1.0  0.05774  0.95829  0.81076  1.0000
  O   O8        1.0  0.09940  0.85248  0.04172  1.0000
  O   O9        1.0  0.24691  0.18919  0.14745  1.0000
  O   O10       1.0  0.94226  0.04171  0.18924  1.0000
  O   O11       1.0  0.90061  0.14752  0.95827  1.0000
  O   O12       1.0  0.75308  0.81080  0.85254  1.0000
  O   O13       1.0  0.33089  0.03413  0.84303  1.0000
  O   O14       1.0  0.29668  0.80898  0.96583  1.0000
  O   O15       1.0  0.48779  0.15693  0.19099  1.0000
  O   O16       1.0  0.66911  0.96587  0.15697  1.0000
  O   O17       1.0  0.70332  0.19102  0.03417  1.0000
  O   O18       1.0  0.51220  0.84306  0.80900  1.0000
