data_image0
_chemical_formula_structural       Cu4H20C30N8Cl6O4
_chemical_formula_sum              "Cu4 H20 C30 N8 Cl6 O4"
_cell_length_a       8.8115
_cell_length_b       10.3585
_cell_length_c       10.5645
_cell_angle_alpha    60.3155
_cell_angle_beta     78.4531
_cell_angle_gamma    83.4146

_space_group_name_H-M_alt    "P 1"
_space_group_IT_number       1

loop_
  _space_group_symop_operation_xyz
  'x, y, z'

loop_
  _atom_site_type_symbol
  _atom_site_label
  _atom_site_symmetry_multiplicity
  _atom_site_fract_x
  _atom_site_fract_y
  _atom_site_fract_z
  _atom_site_occupancy
  Cu  Cu1       1.0  0.26646  0.67952  0.01151  1.0000
  Cu  Cu2       1.0  0.73350  0.32048  0.98848  1.0000
  Cu  Cu3       1.0  0.56728  0.66453  0.39921  1.0000
  Cu  Cu4       1.0  0.43272  0.33547  0.60080  1.0000
  H   H1        1.0  0.43549  0.96408  0.87437  1.0000
  H   H2        1.0  0.56446  0.03591  0.12557  1.0000
  H   H3        1.0  0.39620  0.19403  0.90041  1.0000
  H   H4        1.0  0.60382  0.80596  0.09953  1.0000
  H   H5        1.0  0.15860  0.21309  0.06934  1.0000
  H   H6        1.0  0.84148  0.78692  0.93065  1.0000
  H   H7        1.0  0.98154  0.00288  0.21199  1.0000
  H   H8        1.0  0.01848  0.99715  0.78803  1.0000
  H   H9        1.0  0.07426  0.78744  0.44942  1.0000
  H   H10       1.0  0.92573  0.21257  0.55057  1.0000
  H   H11       1.0  0.96834  0.86665  0.63673  1.0000
  H   H12       1.0  0.03169  0.13334  0.36329  1.0000
  H   H13       1.0  0.67694  0.89393  0.69819  1.0000
  H   H14       1.0  0.32307  0.10604  0.30185  1.0000
  H   H15       1.0  0.50629  0.82537  0.57780  1.0000
  H   H16       1.0  0.49372  0.17462  0.42222  1.0000
  H   H17       1.0  0.74162  0.43827  0.29014  1.0000
  H   H18       1.0  0.25838  0.56170  0.70991  1.0000
  H   H19       1.0  0.01651  0.43985  0.15705  1.0000
  H   H20       1.0  0.98349  0.56014  0.84297  1.0000
  C   C1        1.0  0.34032  0.97412  0.95283  1.0000
  C   C2        1.0  0.65967  0.02588  0.04713  1.0000
  C   C3        1.0  0.31520  0.10297  0.96528  1.0000
  C   C4        1.0  0.68482  0.89702  0.03470  1.0000
  C   C5        1.0  0.18510  0.11226  0.06028  1.0000
  C   C6        1.0  0.81493  0.88774  0.93970  1.0000
  C   C7        1.0  0.08704  0.99164  0.14381  1.0000
  C   C8        1.0  0.91298  0.00837  0.85619  1.0000
  C   C9        1.0  0.12454  0.86164  0.13428  1.0000
  C   C10       1.0  0.87544  0.13837  0.86571  1.0000
  C   C11       1.0  0.02963  0.72765  0.21057  1.0000
  C   C12       1.0  0.97036  0.27236  0.78944  1.0000
  C   C13       1.0  0.89342  0.70077  0.31621  1.0000
  C   C14       1.0  0.10656  0.29926  0.68378  1.0000
  C   C15       1.0  0.84644  0.76615  0.41423  1.0000
  C   C16       1.0  0.15356  0.23387  0.58577  1.0000
  C   C17       1.0  0.94930  0.79956  0.47824  1.0000
  C   C18       1.0  0.05069  0.20045  0.52176  1.0000
  C   C19       1.0  0.88880  0.84499  0.58264  1.0000
  C   C20       1.0  0.11122  0.15500  0.41738  1.0000
  C   C21       1.0  0.72879  0.85748  0.61851  1.0000
  C   C22       1.0  0.27122  0.14250  0.38152  1.0000
  C   C23       1.0  0.63247  0.82079  0.55164  1.0000
  C   C24       1.0  0.36754  0.17920  0.44839  1.0000
  C   C25       1.0  0.82794  0.51458  0.27439  1.0000
  C   C26       1.0  0.17205  0.48541  0.72563  1.0000
  C   C27       1.0  0.97644  0.52010  0.19519  1.0000
  C   C28       1.0  0.02356  0.47988  0.80483  1.0000
  C   C29       1.0  0.44240  0.43816  0.02641  1.0000
  C   C30       1.0  0.55759  0.56184  0.97356  1.0000
  N   N1        1.0  0.24836  0.85683  0.03660  1.0000
  N   N2        1.0  0.75161  0.14318  0.96338  1.0000
  N   N3        1.0  0.07071  0.63000  0.15849  1.0000
  N   N4        1.0  0.92929  0.36999  0.84154  1.0000
  N   N5        1.0  0.78934  0.60409  0.33367  1.0000
  N   N6        1.0  0.21065  0.39593  0.66632  1.0000
  N   N7        1.0  0.69107  0.77425  0.45370  1.0000
  N   N8        1.0  0.30893  0.22576  0.54630  1.0000
  Cl  Cl1       1.0  0.20183  0.79321  0.77075  1.0000
  Cl  Cl2       1.0  0.79817  0.20682  0.22923  1.0000
  Cl  Cl3       1.0  0.36232  0.81935  0.37445  1.0000
  Cl  Cl4       1.0  0.63766  0.18062  0.62558  1.0000
  Cl  Cl5       1.0  0.45593  0.53811  0.32018  1.0000
  Cl  Cl6       1.0  0.54407  0.46191  0.67980  1.0000
  O   O1        1.0  0.29917  0.47006  0.04764  1.0000
  O   O2        1.0  0.70081  0.52995  0.95235  1.0000
  O   O3        1.0  0.49660  0.31257  0.04596  1.0000
  O   O4        1.0  0.50337  0.68744  0.95400  1.0000
