data_image0
_chemical_formula_structural       Gd2Cu3P6H24C30N6O18
_chemical_formula_sum              "Gd2 Cu3 P6 H24 C30 N6 O18"
_cell_length_a       10.1989
_cell_length_b       11.3625
_cell_length_c       11.3629
_cell_angle_alpha    111.452
_cell_angle_beta     107.414
_cell_angle_gamma    107.4

_space_group_name_H-M_alt    "P 1"
_space_group_IT_number       1

loop_
  _space_group_symop_operation_xyz
  'x, y, z'

loop_
  _atom_site_type_symbol
  _atom_site_label
  _atom_site_symmetry_multiplicity
  _atom_site_fract_x
  _atom_site_fract_y
  _atom_site_fract_z
  _atom_site_occupancy
  Gd  Gd1       1.0  1.00000  1.00000  1.00000  1.0000
  Gd  Gd2       1.0  0.50000  1.00000  1.00000  1.0000
  Cu  Cu1       1.0  1.00000  0.00000  0.50000  1.0000
  Cu  Cu2       1.0  1.00000  0.50000  1.00000  1.0000
  Cu  Cu3       1.0  0.49999  0.49999  0.50000  1.0000
  P   P1        1.0  0.15823  0.98564  0.75172  1.0000
  P   P2        1.0  0.17263  0.76611  0.01436  1.0000
  P   P3        1.0  0.40648  0.24828  0.23388  1.0000
  P   P4        1.0  0.84177  0.01436  0.24828  1.0000
  P   P5        1.0  0.82738  0.23390  0.98564  1.0000
  P   P6        1.0  0.59351  0.75171  0.76611  1.0000
  H   H1        1.0  0.02323  0.68612  0.70853  1.0000
  H   H2        1.0  0.33717  0.02246  0.31391  1.0000
  H   H3        1.0  0.31450  0.29150  0.97754  1.0000
  H   H4        1.0  0.97677  0.31387  0.29148  1.0000
  H   H5        1.0  0.66284  0.97755  0.68609  1.0000
  H   H6        1.0  0.68550  0.70850  0.02245  1.0000
  H   H7        1.0  0.82721  0.45325  0.48136  1.0000
  H   H8        1.0  0.37397  0.02814  0.54679  1.0000
  H   H9        1.0  0.34583  0.51872  0.97188  1.0000
  H   H10       1.0  0.17279  0.54675  0.51864  1.0000
  H   H11       1.0  0.62603  0.97186  0.45322  1.0000
  H   H12       1.0  0.65417  0.48128  0.02812  1.0000
  H   H13       1.0  0.71519  0.45592  0.25610  1.0000
  H   H14       1.0  0.25935  0.80021  0.54410  1.0000
  H   H15       1.0  0.45930  0.74399  0.19988  1.0000
  H   H16       1.0  0.28481  0.54409  0.74390  1.0000
  H   H17       1.0  0.74064  0.19979  0.45589  1.0000
  H   H18       1.0  0.54070  0.25601  0.80013  1.0000
  H   H19       1.0  0.78292  0.69623  0.26834  1.0000
  H   H20       1.0  0.08675  0.57222  0.30379  1.0000
  H   H21       1.0  0.51456  0.73162  0.42784  1.0000
  H   H22       1.0  0.21708  0.30378  0.73167  1.0000
  H   H23       1.0  0.91325  0.42779  0.69621  1.0000
  H   H24       1.0  0.48543  0.26837  0.57215  1.0000
  C   C1        1.0  0.00657  0.80904  0.60407  1.0000
  C   C2        1.0  0.19764  0.79511  0.19100  1.0000
  C   C3        1.0  0.40239  0.39591  0.20489  1.0000
  C   C4        1.0  0.99343  0.19096  0.39593  1.0000
  C   C5        1.0  0.80236  0.20490  0.80900  1.0000
  C   C6        1.0  0.59761  0.60409  0.79510  1.0000
  C   C7        1.0  0.96828  0.68226  0.60795  1.0000
  C   C8        1.0  0.28611  0.92575  0.31778  1.0000
  C   C9        1.0  0.36012  0.39207  0.07425  1.0000
  C   C10       1.0  0.03173  0.31774  0.39205  1.0000
  C   C11       1.0  0.71390  0.07425  0.68222  1.0000
  C   C12       1.0  0.63988  0.60793  0.92574  1.0000
  C   C13       1.0  0.86065  0.55422  0.48249  1.0000
  C   C14       1.0  0.30649  0.92833  0.44581  1.0000
  C   C15       1.0  0.37812  0.51759  0.07171  1.0000
  C   C16       1.0  0.13935  0.44578  0.51752  1.0000
  C   C17       1.0  0.69351  0.07167  0.55419  1.0000
  C   C18       1.0  0.62188  0.48241  0.92829  1.0000
  C   C19       1.0  0.79515  0.55517  0.35608  1.0000
  C   C20       1.0  0.24011  0.80097  0.44486  1.0000
  C   C21       1.0  0.43923  0.64398  0.19911  1.0000
  C   C22       1.0  0.20485  0.44483  0.64392  1.0000
  C   C23       1.0  0.75989  0.19903  0.55514  1.0000
  C   C24       1.0  0.56076  0.35601  0.80089  1.0000
  C   C25       1.0  0.83303  0.68545  0.36062  1.0000
  C   C26       1.0  0.14767  0.67526  0.31457  1.0000
  C   C27       1.0  0.47240  0.63935  0.32480  1.0000
  C   C28       1.0  0.16697  0.31455  0.63938  1.0000
  C   C29       1.0  0.85233  0.32474  0.68542  1.0000
  C   C30       1.0  0.52759  0.36064  0.67520  1.0000
  N   N1        1.0  0.93580  0.80876  0.48247  1.0000
  N   N2        1.0  0.12710  0.67380  0.19125  1.0000
  N   N3        1.0  0.45325  0.51748  0.32623  1.0000
  N   N4        1.0  0.06420  0.19124  0.51753  1.0000
  N   N5        1.0  0.87289  0.32621  0.80875  1.0000
  N   N6        1.0  0.54674  0.48251  0.67376  1.0000
  O   O1        1.0  0.09628  0.04117  0.85522  1.0000
  O   O2        1.0  0.05516  0.81408  0.95880  1.0000
  O   O3        1.0  0.24109  0.14474  0.18591  1.0000
  O   O4        1.0  0.90372  0.95883  0.14479  1.0000
  O   O5        1.0  0.94484  0.18592  0.04120  1.0000
  O   O6        1.0  0.75891  0.85525  0.81408  1.0000
  O   O7        1.0  0.30057  0.96804  0.81397  1.0000
  O   O8        1.0  0.33254  0.84594  0.03195  1.0000
  O   O9        1.0  0.48654  0.18604  0.15400  1.0000
  O   O10       1.0  0.69943  0.03196  0.18603  1.0000
  O   O11       1.0  0.66746  0.15406  0.96805  1.0000
  O   O12       1.0  0.51346  0.81396  0.84600  1.0000
  O   O13       1.0  0.18200  0.07301  0.67550  1.0000
  O   O14       1.0  0.10902  0.60252  0.92701  1.0000
  O   O15       1.0  0.50651  0.32450  0.39748  1.0000
  O   O16       1.0  0.81800  0.92699  0.32450  1.0000
  O   O17       1.0  0.89098  0.39749  0.07299  1.0000
  O   O18       1.0  0.49348  0.67549  0.60251  1.0000
