data_image0
_chemical_formula_structural       Pr2Cu3P6H24C30N6O18
_chemical_formula_sum              "Pr2 Cu3 P6 H24 C30 N6 O18"
_cell_length_a       10.4579
_cell_length_b       11.4548
_cell_length_c       11.4543
_cell_angle_alpha    111.164
_cell_angle_beta     107.714
_cell_angle_gamma    107.728

_space_group_name_H-M_alt    "P 1"
_space_group_IT_number       1

loop_
  _space_group_symop_operation_xyz
  'x, y, z'

loop_
  _atom_site_type_symbol
  _atom_site_label
  _atom_site_symmetry_multiplicity
  _atom_site_fract_x
  _atom_site_fract_y
  _atom_site_fract_z
  _atom_site_occupancy
  Pr  Pr1       1.0  1.00000  1.00000  1.00000  1.0000
  Pr  Pr2       1.0  0.50000  0.00000  1.00000  1.0000
  Cu  Cu1       1.0  1.00000  0.00000  0.50000  1.0000
  Cu  Cu2       1.0  0.00000  0.50000  1.00000  1.0000
  Cu  Cu3       1.0  0.50000  0.50000  0.50000  1.0000
  P   P1        1.0  0.17357  0.01676  0.76340  1.0000
  P   P2        1.0  0.15682  0.74662  0.98322  1.0000
  P   P3        1.0  0.41020  0.23653  0.25338  1.0000
  P   P4        1.0  0.82643  0.98324  0.23660  1.0000
  P   P5        1.0  0.84318  0.25338  0.01678  1.0000
  P   P6        1.0  0.58980  0.76346  0.74661  1.0000
  H   H1        1.0  0.33522  0.31322  0.01871  1.0000
  H   H2        1.0  0.02205  0.70539  0.68682  1.0000
  H   H3        1.0  0.31650  0.98127  0.29465  1.0000
  H   H4        1.0  0.66478  0.68678  0.98129  1.0000
  H   H5        1.0  0.97796  0.29461  0.31318  1.0000
  H   H6        1.0  0.68349  0.01872  0.70535  1.0000
  H   H7        1.0  0.37163  0.54506  0.02538  1.0000
  H   H8        1.0  0.82659  0.48020  0.45498  1.0000
  H   H9        1.0  0.34631  0.97468  0.51985  1.0000
  H   H10       1.0  0.62837  0.45494  0.97463  1.0000
  H   H11       1.0  0.17341  0.51980  0.54501  1.0000
  H   H12       1.0  0.65369  0.02531  0.48015  1.0000
  H   H13       1.0  0.25483  0.54240  0.79942  1.0000
  H   H14       1.0  0.71237  0.25690  0.45764  1.0000
  H   H15       1.0  0.45549  0.20071  0.74314  1.0000
  H   H16       1.0  0.74516  0.45760  0.20058  1.0000
  H   H17       1.0  0.28763  0.74310  0.54236  1.0000
  H   H18       1.0  0.54451  0.79929  0.25686  1.0000
  H   H19       1.0  0.08356  0.30396  0.57266  1.0000
  H   H20       1.0  0.77942  0.26860  0.69609  1.0000
  H   H21       1.0  0.51095  0.42741  0.73136  1.0000
  H   H22       1.0  0.91644  0.69605  0.42734  1.0000
  H   H23       1.0  0.22057  0.73140  0.30391  1.0000
  H   H24       1.0  0.48904  0.57259  0.26863  1.0000
  C   C1        1.0  0.19626  0.19163  0.79275  1.0000
  C   C2        1.0  0.00461  0.60103  0.80841  1.0000
  C   C3        1.0  0.40347  0.20722  0.39893  1.0000
  C   C4        1.0  0.80373  0.80837  0.20725  1.0000
  C   C5        1.0  0.99540  0.39897  0.19159  1.0000
  C   C6        1.0  0.59653  0.79277  0.60107  1.0000
  C   C7        1.0  0.28413  0.31737  0.92291  1.0000
  C   C8        1.0  0.96679  0.60544  0.68267  1.0000
  C   C9        1.0  0.36121  0.07709  0.39458  1.0000
  C   C10       1.0  0.71586  0.68263  0.07709  1.0000
  C   C11       1.0  0.03322  0.39456  0.31733  1.0000
  C   C12       1.0  0.63878  0.92290  0.60542  1.0000
  C   C13       1.0  0.30407  0.44472  0.92605  1.0000
  C   C14       1.0  0.85939  0.48123  0.55532  1.0000
  C   C15       1.0  0.37808  0.07399  0.51882  1.0000
  C   C16       1.0  0.69592  0.55528  0.07395  1.0000
  C   C17       1.0  0.14061  0.51878  0.44468  1.0000
  C   C18       1.0  0.62192  0.92600  0.48118  1.0000
  C   C19       1.0  0.23666  0.44367  0.79971  1.0000
  C   C20       1.0  0.79296  0.35592  0.55636  1.0000
  C   C21       1.0  0.43701  0.20037  0.64410  1.0000
  C   C22       1.0  0.76333  0.55633  0.20030  1.0000
  C   C23       1.0  0.20704  0.64409  0.44364  1.0000
  C   C24       1.0  0.56298  0.79963  0.35590  1.0000
  C   C25       1.0  0.14480  0.31428  0.67457  1.0000
  C   C26       1.0  0.83040  0.36019  0.68576  1.0000
  C   C27       1.0  0.47026  0.32549  0.63979  1.0000
  C   C28       1.0  0.85519  0.68573  0.32544  1.0000
  C   C29       1.0  0.16960  0.63982  0.31424  1.0000
  C   C30       1.0  0.52973  0.67451  0.36020  1.0000
  N   N1        1.0  0.12557  0.19169  0.67242  1.0000
  N   N2        1.0  0.93380  0.48064  0.80833  1.0000
  N   N3        1.0  0.45312  0.32757  0.51931  1.0000
  N   N4        1.0  0.87443  0.80831  0.32758  1.0000
  N   N5        1.0  0.06620  0.51937  0.19167  1.0000
  N   N6        1.0  0.54687  0.67243  0.48068  1.0000
  O   O1        1.0  0.11181  0.93067  0.60106  1.0000
  O   O2        1.0  0.18115  0.67048  0.06941  1.0000
  O   O3        1.0  0.51070  0.39888  0.32961  1.0000
  O   O4        1.0  0.88819  0.06933  0.39893  1.0000
  O   O5        1.0  0.81886  0.32952  0.93059  1.0000
  O   O6        1.0  0.48929  0.60111  0.67039  1.0000
  O   O7        1.0  0.05877  0.95901  0.80995  1.0000
  O   O8        1.0  0.09978  0.85094  0.04085  1.0000
  O   O9        1.0  0.24886  0.18988  0.14903  1.0000
  O   O10       1.0  0.94123  0.04098  0.19005  1.0000
  O   O11       1.0  0.90022  0.14906  0.95915  1.0000
  O   O12       1.0  0.75113  0.81012  0.85097  1.0000
  O   O13       1.0  0.33168  0.03801  0.84429  1.0000
  O   O14       1.0  0.29373  0.80623  0.96198  1.0000
  O   O15       1.0  0.48749  0.15571  0.19379  1.0000
  O   O16       1.0  0.66831  0.96199  0.15571  1.0000
  O   O17       1.0  0.70627  0.19377  0.03802  1.0000
  O   O18       1.0  0.51250  0.84429  0.80620  1.0000
