data_image0
_chemical_formula_structural       Sm2Cu3P6H24C30N6O18
_chemical_formula_sum              "Sm2 Cu3 P6 H24 C30 N6 O18"
_cell_length_a       10.3041
_cell_length_b       11.3934
_cell_length_c       11.3931
_cell_angle_alpha    111.326
_cell_angle_beta     107.542
_cell_angle_gamma    107.541

_space_group_name_H-M_alt    "P 1"
_space_group_IT_number       1

loop_
  _space_group_symop_operation_xyz
  'x, y, z'

loop_
  _atom_site_type_symbol
  _atom_site_label
  _atom_site_symmetry_multiplicity
  _atom_site_fract_x
  _atom_site_fract_y
  _atom_site_fract_z
  _atom_site_occupancy
  Sm  Sm1       1.0  0.50000  0.00000  0.00000  1.0000
  Sm  Sm2       1.0  1.00000  0.00000  1.00000  1.0000
  Cu  Cu1       1.0  1.00000  1.00000  0.50000  1.0000
  Cu  Cu2       1.0  1.00000  0.50000  0.00000  1.0000
  Cu  Cu3       1.0  0.49999  0.50000  0.50000  1.0000
  P   P1        1.0  0.17303  0.01539  0.76523  1.0000
  P   P2        1.0  0.15767  0.74984  0.98459  1.0000
  P   P3        1.0  0.40774  0.23472  0.25021  1.0000
  P   P4        1.0  0.82697  0.98461  0.23477  1.0000
  P   P5        1.0  0.84233  0.25017  0.01541  1.0000
  P   P6        1.0  0.59226  0.76527  0.74979  1.0000
  H   H1        1.0  0.33679  0.31393  0.02138  1.0000
  H   H2        1.0  0.02288  0.70740  0.68607  1.0000
  H   H3        1.0  0.31527  0.97868  0.29274  1.0000
  H   H4        1.0  0.66321  0.68607  0.97862  1.0000
  H   H5        1.0  0.97712  0.29260  0.31392  1.0000
  H   H6        1.0  0.68473  0.02132  0.70726  1.0000
  H   H7        1.0  0.37363  0.54648  0.02750  1.0000
  H   H8        1.0  0.82724  0.48102  0.45352  1.0000
  H   H9        1.0  0.34621  0.97258  0.51919  1.0000
  H   H10       1.0  0.62637  0.45352  0.97250  1.0000
  H   H11       1.0  0.17276  0.51898  0.54648  1.0000
  H   H12       1.0  0.65380  0.02742  0.48081  1.0000
  H   H13       1.0  0.25772  0.54376  0.80026  1.0000
  H   H14       1.0  0.71398  0.25653  0.45631  1.0000
  H   H15       1.0  0.45768  0.19988  0.74373  1.0000
  H   H16       1.0  0.74227  0.45624  0.19974  1.0000
  H   H17       1.0  0.28602  0.74347  0.54370  1.0000
  H   H18       1.0  0.54232  0.80012  0.25627  1.0000
  H   H19       1.0  0.08566  0.30433  0.57267  1.0000
  H   H20       1.0  0.78131  0.26837  0.69574  1.0000
  H   H21       1.0  0.51300  0.42744  0.73175  1.0000
  H   H22       1.0  0.91434  0.69567  0.42734  1.0000
  H   H23       1.0  0.21870  0.73163  0.30426  1.0000
  H   H24       1.0  0.48700  0.57256  0.26824  1.0000
  C   C1        1.0  0.19698  0.19136  0.79443  1.0000
  C   C2        1.0  0.00564  0.60307  0.80867  1.0000
  C   C3        1.0  0.40248  0.20560  0.39704  1.0000
  C   C4        1.0  0.80302  0.80864  0.20557  1.0000
  C   C5        1.0  0.99436  0.39694  0.19133  1.0000
  C   C6        1.0  0.59751  0.79440  0.60296  1.0000
  C   C7        1.0  0.28550  0.31781  0.92494  1.0000
  C   C8        1.0  0.96773  0.60709  0.68220  1.0000
  C   C9        1.0  0.36047  0.07512  0.39305  1.0000
  C   C10       1.0  0.71450  0.68219  0.07506  1.0000
  C   C11       1.0  0.03228  0.39291  0.31780  1.0000
  C   C12       1.0  0.63953  0.92487  0.60695  1.0000
  C   C13       1.0  0.30592  0.44570  0.92779  1.0000
  C   C14       1.0  0.86031  0.48207  0.55431  1.0000
  C   C15       1.0  0.37819  0.07231  0.51813  1.0000
  C   C16       1.0  0.69408  0.55430  0.07221  1.0000
  C   C17       1.0  0.13969  0.51793  0.44569  1.0000
  C   C18       1.0  0.62181  0.92769  0.48187  1.0000
  C   C19       1.0  0.23886  0.44465  0.80078  1.0000
  C   C20       1.0  0.79426  0.35614  0.55540  1.0000
  C   C21       1.0  0.43823  0.19935  0.64408  1.0000
  C   C22       1.0  0.76114  0.55535  0.19923  1.0000
  C   C23       1.0  0.20574  0.64387  0.44460  1.0000
  C   C24       1.0  0.56177  0.80065  0.35592  1.0000
  C   C25       1.0  0.14652  0.31463  0.67519  1.0000
  C   C26       1.0  0.83191  0.36060  0.68545  1.0000
  C   C27       1.0  0.47136  0.32491  0.63957  1.0000
  C   C28       1.0  0.85348  0.68537  0.32481  1.0000
  C   C29       1.0  0.16810  0.63941  0.31455  1.0000
  C   C30       1.0  0.52864  0.67508  0.36042  1.0000
  N   N1        1.0  0.12639  0.19153  0.67343  1.0000
  N   N2        1.0  0.93487  0.48192  0.80854  1.0000
  N   N3        1.0  0.45293  0.32662  0.51818  1.0000
  N   N4        1.0  0.87361  0.80847  0.32657  1.0000
  N   N5        1.0  0.06512  0.51808  0.19146  1.0000
  N   N6        1.0  0.54706  0.67337  0.48181  1.0000
  O   O1        1.0  0.11032  0.92873  0.60207  1.0000
  O   O2        1.0  0.18165  0.67331  0.07123  1.0000
  O   O3        1.0  0.50822  0.39787  0.32668  1.0000
  O   O4        1.0  0.88968  0.07127  0.39793  1.0000
  O   O5        1.0  0.81835  0.32670  0.92876  1.0000
  O   O6        1.0  0.49177  0.60213  0.67332  1.0000
  O   O7        1.0  0.05664  0.95863  0.81252  1.0000
  O   O8        1.0  0.09804  0.85388  0.04140  1.0000
  O   O9        1.0  0.24410  0.18750  0.14616  1.0000
  O   O10       1.0  0.94336  0.04137  0.18748  1.0000
  O   O11       1.0  0.90196  0.14613  0.95860  1.0000
  O   O12       1.0  0.75589  0.81250  0.85384  1.0000
  O   O13       1.0  0.33230  0.03454  0.84550  1.0000
  O   O14       1.0  0.29773  0.81093  0.96535  1.0000
  O   O15       1.0  0.48669  0.15435  0.18910  1.0000
  O   O16       1.0  0.66770  0.96546  0.15451  1.0000
  O   O17       1.0  0.70227  0.18908  0.03465  1.0000
  O   O18       1.0  0.51330  0.84564  0.81090  1.0000
