data_image0
_chemical_formula_structural       Tb2Cu3P6H24C30N6O18
_chemical_formula_sum              "Tb2 Cu3 P6 H24 C30 N6 O18"
_cell_length_a       10.1712
_cell_length_b       11.3355
_cell_length_c       11.3356
_cell_angle_alpha    111.459
_cell_angle_beta     107.395
_cell_angle_gamma    107.405

_space_group_name_H-M_alt    "P 1"
_space_group_IT_number       1

loop_
  _space_group_symop_operation_xyz
  'x, y, z'

loop_
  _atom_site_type_symbol
  _atom_site_label
  _atom_site_symmetry_multiplicity
  _atom_site_fract_x
  _atom_site_fract_y
  _atom_site_fract_z
  _atom_site_occupancy
  Tb  Tb1       1.0  1.00000  1.00000  1.00000  1.0000
  Tb  Tb2       1.0  0.50000  0.00000  1.00000  1.0000
  Cu  Cu1       1.0  1.00000  1.00000  0.50000  1.0000
  Cu  Cu2       1.0  1.00000  0.50000  0.00000  1.0000
  Cu  Cu3       1.0  0.49999  0.50000  0.50000  1.0000
  P   P1        1.0  0.17273  0.01476  0.76708  1.0000
  P   P2        1.0  0.15796  0.75225  0.98517  1.0000
  P   P3        1.0  0.40557  0.23290  0.24767  1.0000
  P   P4        1.0  0.82727  0.98524  0.23292  1.0000
  P   P5        1.0  0.84204  0.24775  0.01483  1.0000
  P   P6        1.0  0.59443  0.76710  0.75233  1.0000
  H   H1        1.0  0.33571  0.31491  0.02417  1.0000
  H   H2        1.0  0.02082  0.70925  0.68509  1.0000
  H   H3        1.0  0.31147  0.97584  0.29072  1.0000
  H   H4        1.0  0.66429  0.68509  0.97583  1.0000
  H   H5        1.0  0.97918  0.29075  0.31490  1.0000
  H   H6        1.0  0.68853  0.02416  0.70928  1.0000
  H   H7        1.0  0.37397  0.54835  0.02968  1.0000
  H   H8        1.0  0.82567  0.48139  0.45165  1.0000
  H   H9        1.0  0.34432  0.97029  0.51865  1.0000
  H   H10       1.0  0.62603  0.45165  0.97031  1.0000
  H   H11       1.0  0.17433  0.51861  0.54835  1.0000
  H   H12       1.0  0.65568  0.02971  0.48135  1.0000
  H   H13       1.0  0.26073  0.54558  0.80069  1.0000
  H   H14       1.0  0.71503  0.25509  0.45431  1.0000
  H   H15       1.0  0.46008  0.19932  0.74488  1.0000
  H   H16       1.0  0.73927  0.45442  0.19931  1.0000
  H   H17       1.0  0.28497  0.74491  0.54569  1.0000
  H   H18       1.0  0.53992  0.80068  0.25512  1.0000
  H   H19       1.0  0.08842  0.30507  0.57258  1.0000
  H   H20       1.0  0.78325  0.26742  0.69486  1.0000
  H   H21       1.0  0.51581  0.42742  0.73247  1.0000
  H   H22       1.0  0.91157  0.69493  0.42742  1.0000
  H   H23       1.0  0.21675  0.73258  0.30515  1.0000
  H   H24       1.0  0.48418  0.57258  0.26752  1.0000
  C   C1        1.0  0.19713  0.19153  0.79599  1.0000
  C   C2        1.0  0.00561  0.60439  0.80842  1.0000
  C   C3        1.0  0.40105  0.20401  0.39552  1.0000
  C   C4        1.0  0.80287  0.80847  0.20401  1.0000
  C   C5        1.0  0.99439  0.39562  0.19158  1.0000
  C   C6        1.0  0.59895  0.79598  0.60447  1.0000
  C   C7        1.0  0.28530  0.31866  0.92701  1.0000
  C   C8        1.0  0.96664  0.60830  0.68130  1.0000
  C   C9        1.0  0.35820  0.07299  0.39164  1.0000
  C   C10       1.0  0.71470  0.68134  0.07299  1.0000
  C   C11       1.0  0.03336  0.39170  0.31870  1.0000
  C   C12       1.0  0.64180  0.92701  0.60836  1.0000
  C   C13       1.0  0.30656  0.44711  0.92956  1.0000
  C   C14       1.0  0.85940  0.48245  0.55286  1.0000
  C   C15       1.0  0.37703  0.07042  0.51754  1.0000
  C   C16       1.0  0.69344  0.55289  0.07044  1.0000
  C   C17       1.0  0.14060  0.51755  0.44714  1.0000
  C   C18       1.0  0.62297  0.92958  0.48246  1.0000
  C   C19       1.0  0.24095  0.44613  0.80174  1.0000
  C   C20       1.0  0.79465  0.35557  0.55379  1.0000
  C   C21       1.0  0.43927  0.19826  0.64438  1.0000
  C   C22       1.0  0.75905  0.55387  0.19826  1.0000
  C   C23       1.0  0.20534  0.64443  0.44621  1.0000
  C   C24       1.0  0.56073  0.80174  0.35562  1.0000
  C   C25       1.0  0.14850  0.31545  0.67574  1.0000
  C   C26       1.0  0.83293  0.36023  0.68446  1.0000
  C   C27       1.0  0.47272  0.32424  0.63967  1.0000
  C   C28       1.0  0.85149  0.68455  0.32425  1.0000
  C   C29       1.0  0.16707  0.63978  0.31554  1.0000
  C   C30       1.0  0.52728  0.67576  0.36033  1.0000
  N   N1        1.0  0.12723  0.19176  0.67422  1.0000
  N   N2        1.0  0.93541  0.48237  0.80815  1.0000
  N   N3        1.0  0.45295  0.32579  0.51753  1.0000
  N   N4        1.0  0.87276  0.80824  0.32578  1.0000
  N   N5        1.0  0.06458  0.51764  0.19185  1.0000
  N   N6        1.0  0.54704  0.67421  0.48246  1.0000
  O   O1        1.0  0.10936  0.92727  0.60316  1.0000
  O   O2        1.0  0.18209  0.67583  0.07269  1.0000
  O   O3        1.0  0.50612  0.39684  0.32404  1.0000
  O   O4        1.0  0.89064  0.07274  0.39685  1.0000
  O   O5        1.0  0.81791  0.32418  0.92732  1.0000
  O   O6        1.0  0.49387  0.60316  0.67595  1.0000
  O   O7        1.0  0.05467  0.95839  0.81464  1.0000
  O   O8        1.0  0.09623  0.85615  0.04152  1.0000
  O   O9        1.0  0.23998  0.18534  0.14378  1.0000
  O   O10       1.0  0.94533  0.04161  0.18536  1.0000
  O   O11       1.0  0.90377  0.14385  0.95847  1.0000
  O   O12       1.0  0.76002  0.81465  0.85622  1.0000
  O   O13       1.0  0.33346  0.03328  0.84764  1.0000
  O   O14       1.0  0.30018  0.81432  0.96666  1.0000
  O   O15       1.0  0.48573  0.15228  0.18567  1.0000
  O   O16       1.0  0.66654  0.96672  0.15236  1.0000
  O   O17       1.0  0.69982  0.18568  0.03335  1.0000
  O   O18       1.0  0.51427  0.84772  0.81433  1.0000
