data_image0
_chemical_formula_structural       Zn2H28C38N4O8
_chemical_formula_sum              "Zn2 H28 C38 N4 O8"
_cell_length_a       8.73901
_cell_length_b       10.1481
_cell_length_c       10.8251
_cell_angle_alpha    77.0159
_cell_angle_beta     70.3891
_cell_angle_gamma    84.2666

_space_group_name_H-M_alt    "P 1"
_space_group_IT_number       1

loop_
  _space_group_symop_operation_xyz
  'x, y, z'

loop_
  _atom_site_type_symbol
  _atom_site_label
  _atom_site_symmetry_multiplicity
  _atom_site_fract_x
  _atom_site_fract_y
  _atom_site_fract_z
  _atom_site_occupancy
  Zn  Zn1       1.0  0.43777  0.37785  0.90454  1.0000
  Zn  Zn2       1.0  0.56224  0.62215  0.09546  1.0000
  H   H1        1.0  0.32551  0.19581  0.17873  1.0000
  H   H2        1.0  0.67449  0.80419  0.82126  1.0000
  H   H3        1.0  0.12658  0.19805  0.40416  1.0000
  H   H4        1.0  0.87343  0.80195  0.59583  1.0000
  H   H5        1.0  0.91273  0.56374  0.22587  1.0000
  H   H6        1.0  0.08727  0.43627  0.77413  1.0000
  H   H7        1.0  0.12396  0.54685  0.01121  1.0000
  H   H8        1.0  0.87604  0.45315  0.98879  1.0000
  H   H9        1.0  0.00279  0.24221  0.59077  1.0000
  H   H10       1.0  0.99722  0.75778  0.40923  1.0000
  H   H11       1.0  0.78180  0.24996  0.80502  1.0000
  H   H12       1.0  0.21821  0.75003  0.19498  1.0000
  H   H13       1.0  0.52088  0.54027  0.61905  1.0000
  H   H14       1.0  0.47914  0.45973  0.38096  1.0000
  H   H15       1.0  0.72457  0.54416  0.39457  1.0000
  H   H16       1.0  0.27544  0.45584  0.60543  1.0000
  H   H17       1.0  0.38421  0.92313  0.94087  1.0000
  H   H18       1.0  0.61577  0.07688  0.05914  1.0000
  H   H19       1.0  0.32245  0.73253  0.64404  1.0000
  H   H20       1.0  0.67755  0.26747  0.35597  1.0000
  H   H21       1.0  0.28741  0.16725  0.59465  1.0000
  H   H22       1.0  0.71258  0.83275  0.40535  1.0000
  H   H23       1.0  0.31897  0.87025  0.42971  1.0000
  H   H24       1.0  0.68103  0.12974  0.57030  1.0000
  H   H25       1.0  0.33918  0.04777  0.39638  1.0000
  H   H26       1.0  0.66082  0.95222  0.60362  1.0000
  H   H27       1.0  0.14463  0.97492  0.48005  1.0000
  H   H28       1.0  0.85537  0.02507  0.51995  1.0000
  C   C1        1.0  0.23335  0.27658  0.19481  1.0000
  C   C2        1.0  0.76665  0.72343  0.80518  1.0000
  C   C3        1.0  0.12126  0.27887  0.32059  1.0000
  C   C4        1.0  0.87874  0.72114  0.67940  1.0000
  C   C5        1.0  0.00279  0.38329  0.33786  1.0000
  C   C6        1.0  0.99721  0.61671  0.66213  1.0000
  C   C7        1.0  0.00214  0.48042  0.22290  1.0000
  C   C8        1.0  0.99786  0.51958  0.77710  1.0000
  C   C9        1.0  0.12012  0.47164  0.10126  1.0000
  C   C10       1.0  0.87988  0.52837  0.89874  1.0000
  C   C11       1.0  0.88194  0.38919  0.47039  1.0000
  C   C12       1.0  0.11807  0.61081  0.52961  1.0000
  C   C13       1.0  0.89699  0.30845  0.58975  1.0000
  C   C14       1.0  0.10302  0.69155  0.41024  1.0000
  C   C15       1.0  0.77496  0.31268  0.71087  1.0000
  C   C16       1.0  0.22505  0.68732  0.28913  1.0000
  C   C17       1.0  0.62898  0.47461  0.60669  1.0000
  C   C18       1.0  0.37103  0.52539  0.39331  1.0000
  C   C19       1.0  0.74416  0.47568  0.48158  1.0000
  C   C20       1.0  0.25585  0.52432  0.51842  1.0000
  C   C21       1.0  0.33128  0.05756  0.77369  1.0000
  C   C22       1.0  0.66870  0.94244  0.22632  1.0000
  C   C23       1.0  0.35673  0.93056  0.84841  1.0000
  C   C24       1.0  0.64325  0.06944  0.15159  1.0000
  C   C25       1.0  0.35086  0.81362  0.80196  1.0000
  C   C26       1.0  0.64913  0.18638  0.19805  1.0000
  C   C27       1.0  0.32349  0.82468  0.67955  1.0000
  C   C28       1.0  0.67650  0.17532  0.32045  1.0000
  C   C29       1.0  0.29988  0.95081  0.60297  1.0000
  C   C30       1.0  0.70011  0.04918  0.39703  1.0000
  C   C31       1.0  0.30234  0.06657  0.65241  1.0000
  C   C32       1.0  0.69764  0.93343  0.34760  1.0000
  C   C33       1.0  0.34420  0.18494  0.81792  1.0000
  C   C34       1.0  0.65579  0.81507  0.18208  1.0000
  C   C35       1.0  0.37974  0.67692  0.88036  1.0000
  C   C36       1.0  0.62026  0.32308  0.11965  1.0000
  C   C37       1.0  0.27454  0.96158  0.47035  1.0000
  C   C38       1.0  0.72545  0.03841  0.52966  1.0000
  N   N1        1.0  0.23561  0.37306  0.08637  1.0000
  N   N2        1.0  0.76439  0.62694  0.91362  1.0000
  N   N3        1.0  0.64164  0.39347  0.71981  1.0000
  N   N4        1.0  0.35837  0.60653  0.28019  1.0000
  O   O1        1.0  0.41422  0.17536  0.90675  1.0000
  O   O2        1.0  0.58578  0.82464  0.09325  1.0000
  O   O3        1.0  0.29203  0.29652  0.76437  1.0000
  O   O4        1.0  0.70796  0.70349  0.23562  1.0000
  O   O5        1.0  0.39617  0.67044  0.99365  1.0000
  O   O6        1.0  0.60383  0.32957  0.00636  1.0000
  O   O7        1.0  0.38263  0.57502  0.82836  1.0000
  O   O8        1.0  0.61738  0.42498  0.17164  1.0000
