data_image0
_chemical_formula_structural       Cu2H18C14N14
_chemical_formula_sum              "Cu2 H18 C14 N14"
_cell_length_a       5.43212
_cell_length_b       9.67493
_cell_length_c       10.5642
_cell_angle_alpha    114.062
_cell_angle_beta     100.894
_cell_angle_gamma    90.3115

_space_group_name_H-M_alt    "P 1"
_space_group_IT_number       1

loop_
  _space_group_symop_operation_xyz
  'x, y, z'

loop_
  _atom_site_type_symbol
  _atom_site_label
  _atom_site_symmetry_multiplicity
  _atom_site_fract_x
  _atom_site_fract_y
  _atom_site_fract_z
  _atom_site_occupancy
  Cu  Cu1       1.0  0.12906  0.97420  0.36860  1.0000
  Cu  Cu2       1.0  0.87093  0.02579  0.63140  1.0000
  H   H1        1.0  0.85617  0.06260  0.14882  1.0000
  H   H2        1.0  0.14382  0.93740  0.85118  1.0000
  H   H3        1.0  0.55672  0.18192  0.41976  1.0000
  H   H4        1.0  0.44328  0.81807  0.58024  1.0000
  H   H5        1.0  0.65621  0.38499  0.34265  1.0000
  H   H6        1.0  0.34379  0.61501  0.65735  1.0000
  H   H7        1.0  0.93436  0.24525  0.93331  1.0000
  H   H8        1.0  0.06564  0.75475  0.06669  1.0000
  H   H9        1.0  0.81852  0.38521  0.07192  1.0000
  H   H10       1.0  0.18148  0.61479  0.92808  1.0000
  H   H11       1.0  0.69743  0.19209  0.00528  1.0000
  H   H12       1.0  0.30256  0.80792  0.99471  1.0000
  H   H13       1.0  0.20498  0.54223  0.16770  1.0000
  H   H14       1.0  0.79502  0.45777  0.83231  1.0000
  H   H15       1.0  0.33515  0.40993  0.03017  1.0000
  H   H16       1.0  0.66486  0.59008  0.96984  1.0000
  H   H17       1.0  0.53267  0.52283  0.19959  1.0000
  H   H18       1.0  0.46733  0.47716  0.80042  1.0000
  C   C1        1.0  0.03121  0.13646  0.18759  1.0000
  C   C2        1.0  0.96879  0.86355  0.81241  1.0000
  C   C3        1.0  0.42390  0.20325  0.34000  1.0000
  C   C4        1.0  0.57610  0.79675  0.66000  1.0000
  C   C5        1.0  0.06938  0.24647  0.13822  1.0000
  C   C6        1.0  0.93061  0.75353  0.86177  1.0000
  C   C7        1.0  0.47697  0.31514  0.29586  1.0000
  C   C8        1.0  0.52303  0.68486  0.70414  1.0000
  C   C9        1.0  0.29958  0.33915  0.19390  1.0000
  C   C10       1.0  0.70043  0.66085  0.80610  1.0000
  C   C11       1.0  0.86840  0.26733  0.03130  1.0000
  C   C12       1.0  0.13161  0.73268  0.96870  1.0000
  C   C13       1.0  0.34755  0.46016  0.14556  1.0000
  C   C14       1.0  0.65245  0.53984  0.85444  1.0000
  N   N1        1.0  0.40730  0.84424  0.31987  1.0000
  N   N2        1.0  0.59269  0.15574  0.68012  1.0000
  N   N3        1.0  0.03360  0.86275  0.48140  1.0000
  N   N4        1.0  0.96640  0.13725  0.51861  1.0000
  N   N5        1.0  0.20401  0.11522  0.28630  1.0000
  N   N6        1.0  0.79599  0.88478  0.71370  1.0000
  N   N7        1.0  0.57139  0.85958  0.26460  1.0000
  N   N8        1.0  0.42861  0.14041  0.73538  1.0000
  N   N9        1.0  0.99415  0.72544  0.43394  1.0000
  N   N10       1.0  0.00586  0.27456  0.56606  1.0000
  N   N11       1.0  0.73986  0.86867  0.21162  1.0000
  N   N12       1.0  0.26010  0.13134  0.78837  1.0000
  N   N13       1.0  0.96042  0.59404  0.38934  1.0000
  N   N14       1.0  0.03960  0.40597  0.61066  1.0000
