data_image0
_chemical_formula_structural       Cu3H18C14N20
_chemical_formula_sum              "Cu3 H18 C14 N20"
_cell_length_a       8.09341
_cell_length_b       7.86735
_cell_length_c       10.6604
_cell_angle_alpha    68.355
_cell_angle_beta     68.3052
_cell_angle_gamma    79.9165

_space_group_name_H-M_alt    "P 1"
_space_group_IT_number       1

loop_
  _space_group_symop_operation_xyz
  'x, y, z'

loop_
  _atom_site_type_symbol
  _atom_site_label
  _atom_site_symmetry_multiplicity
  _atom_site_fract_x
  _atom_site_fract_y
  _atom_site_fract_z
  _atom_site_occupancy
  Cu  Cu1       1.0  0.99790  0.50503  0.49650  1.0000
  Cu  Cu2       1.0  0.33671  0.36978  0.60704  1.0000
  Cu  Cu3       1.0  0.65871  0.61775  0.38947  1.0000
  H   H1        1.0  0.15146  0.74273  0.95527  1.0000
  H   H2        1.0  0.84942  0.25488  0.04808  1.0000
  H   H3        1.0  0.18164  0.79435  0.16546  1.0000
  H   H4        1.0  0.81851  0.20519  0.83726  1.0000
  H   H5        1.0  0.29870  0.08843  0.12780  1.0000
  H   H6        1.0  0.70106  0.91121  0.87425  1.0000
  H   H7        1.0  0.18647  0.84641  0.70959  1.0000
  H   H8        1.0  0.81267  0.15126  0.29343  1.0000
  H   H9        1.0  0.34807  0.01246  0.59302  1.0000
  H   H10       1.0  0.65170  0.98340  0.41018  1.0000
  H   H11       1.0  0.11874  0.08097  0.64983  1.0000
  H   H12       1.0  0.88125  0.91697  0.35240  1.0000
  H   H13       1.0  0.41408  0.38027  0.97103  1.0000
  H   H14       1.0  0.58542  0.62123  0.02907  1.0000
  H   H15       1.0  0.53510  0.38427  0.79177  1.0000
  H   H16       1.0  0.46465  0.61443  0.20895  1.0000
  H   H17       1.0  0.32032  0.49152  0.83270  1.0000
  H   H18       1.0  0.68000  0.50763  0.16649  1.0000
  C   C1        1.0  0.24284  0.00815  0.81088  1.0000
  C   C2        1.0  0.75651  0.98996  0.19212  1.0000
  C   C3        1.0  0.19995  0.86996  0.94401  1.0000
  C   C4        1.0  0.80020  0.12829  0.05889  1.0000
  C   C5        1.0  0.21780  0.89835  0.05955  1.0000
  C   C6        1.0  0.78240  0.10082  0.94302  1.0000
  C   C7        1.0  0.28215  0.06256  0.03969  1.0000
  C   C8        1.0  0.71783  0.93702  0.96229  1.0000
  C   C9        1.0  0.32587  0.19641  0.90438  1.0000
  C   C10       1.0  0.67365  0.80297  0.09740  1.0000
  C   C11       1.0  0.22289  0.98582  0.68396  1.0000
  C   C12       1.0  0.77651  0.01177  0.31905  1.0000
  C   C13       1.0  0.40260  0.37258  0.87416  1.0000
  C   C14       1.0  0.59716  0.62706  0.12645  1.0000
  N   N1        1.0  0.24485  0.40023  0.42416  1.0000
  N   N2        1.0  0.75757  0.60434  0.57540  1.0000
  N   N3        1.0  0.30771  0.31097  0.34415  1.0000
  N   N4        1.0  0.69791  0.68795  0.65892  1.0000
  N   N5        1.0  0.37718  0.22579  0.26828  1.0000
  N   N6        1.0  0.62953  0.76840  0.73873  1.0000
  N   N7        1.0  0.07874  0.46212  0.65938  1.0000
  N   N8        1.0  0.92196  0.54021  0.33169  1.0000
  N   N9        1.0  0.00512  0.52302  0.75834  1.0000
  N   N10       1.0  0.99361  0.47756  0.23447  1.0000
  N   N11       1.0  0.94049  0.57756  0.85359  1.0000
  N   N12       1.0  0.05804  0.42153  0.13970  1.0000
  N   N13       1.0  0.59237  0.34309  0.49852  1.0000
  N   N14       1.0  0.41064  0.67698  0.49563  1.0000
  N   N15       1.0  0.69845  0.24594  0.55393  1.0000
  N   N16       1.0  0.30173  0.76408  0.44039  1.0000
  N   N17       1.0  0.80702  0.15915  0.60060  1.0000
  N   N18       1.0  0.18727  0.84029  0.39638  1.0000
  N   N19       1.0  0.30316  0.16832  0.79376  1.0000
  N   N20       1.0  0.69570  0.83059  0.20853  1.0000
