data_image0
_chemical_formula_structural       Hg2H16C24N4O8
_chemical_formula_sum              "Hg2 H16 C24 N4 O8"
_cell_length_a       5.7047
_cell_length_b       7.70312
_cell_length_c       12.5259
_cell_angle_alpha    90.0008
_cell_angle_beta     89.9992
_cell_angle_gamma    92.7707

_space_group_name_H-M_alt    "P 1"
_space_group_IT_number       1

loop_
  _space_group_symop_operation_xyz
  'x, y, z'

loop_
  _atom_site_type_symbol
  _atom_site_label
  _atom_site_symmetry_multiplicity
  _atom_site_fract_x
  _atom_site_fract_y
  _atom_site_fract_z
  _atom_site_occupancy
  Hg  Hg1       1.0  0.00001  0.99999  0.00000  1.0000
  Hg  Hg2       1.0  0.00001  0.50001  0.50000  1.0000
  H   H1        1.0  0.56466  0.80140  0.29707  1.0000
  H   H2        1.0  0.43533  0.69860  0.79706  1.0000
  H   H3        1.0  0.43536  0.19860  0.70294  1.0000
  H   H4        1.0  0.56464  0.30139  0.20293  1.0000
  H   H5        1.0  0.32697  0.89536  0.45120  1.0000
  H   H6        1.0  0.67301  0.60465  0.95119  1.0000
  H   H7        1.0  0.67304  0.10466  0.54881  1.0000
  H   H8        1.0  0.32693  0.39532  0.04880  1.0000
  H   H9        1.0  0.95351  0.05366  0.41345  1.0000
  H   H10       1.0  0.04648  0.44636  0.91345  1.0000
  H   H11       1.0  0.04651  0.94637  0.58655  1.0000
  H   H12       1.0  0.95349  0.55363  0.08655  1.0000
  H   H13       1.0  0.83779  0.09801  0.22520  1.0000
  H   H14       1.0  0.16220  0.40199  0.72519  1.0000
  H   H15       1.0  0.16221  0.90198  0.77480  1.0000
  H   H16       1.0  0.83779  0.59802  0.27480  1.0000
  C   C1        1.0  0.32584  0.89416  0.17984  1.0000
  C   C2        1.0  0.67415  0.60584  0.67984  1.0000
  C   C3        1.0  0.67416  0.10582  0.82017  1.0000
  C   C4        1.0  0.32587  0.39416  0.32015  1.0000
  C   C5        1.0  0.45776  0.82581  0.08354  1.0000
  C   C6        1.0  0.54226  0.67419  0.58352  1.0000
  C   C7        1.0  0.54226  0.17418  0.91647  1.0000
  C   C8        1.0  0.45775  0.32583  0.41647  1.0000
  C   C9        1.0  0.40338  0.86772  0.28395  1.0000
  C   C10       1.0  0.59661  0.63228  0.78394  1.0000
  C   C11       1.0  0.59662  0.13229  0.71605  1.0000
  C   C12       1.0  0.40337  0.36772  0.21605  1.0000
  C   C13       1.0  0.27037  0.92224  0.36992  1.0000
  C   C14       1.0  0.72962  0.57778  0.86991  1.0000
  C   C15       1.0  0.72967  0.07777  0.63009  1.0000
  C   C16       1.0  0.27035  0.42221  0.13008  1.0000
  C   C17       1.0  0.06327  0.00577  0.35002  1.0000
  C   C18       1.0  0.93673  0.49424  0.85001  1.0000
  C   C19       1.0  0.93673  0.99424  0.64999  1.0000
  C   C20       1.0  0.06324  0.50575  0.14999  1.0000
  C   C21       1.0  0.99616  0.03159  0.24483  1.0000
  C   C22       1.0  0.00383  0.46842  0.74482  1.0000
  C   C23       1.0  0.00387  0.96840  0.75518  1.0000
  C   C24       1.0  0.99618  0.53159  0.25517  1.0000
  N   N1        1.0  0.12519  0.97592  0.16297  1.0000
  N   N2        1.0  0.87481  0.52408  0.66296  1.0000
  N   N3        1.0  0.87480  0.02407  0.83704  1.0000
  N   N4        1.0  0.12521  0.47594  0.33703  1.0000
  O   O1        1.0  0.66337  0.77927  0.10167  1.0000
  O   O2        1.0  0.33662  0.72072  0.60167  1.0000
  O   O3        1.0  0.33661  0.22070  0.89833  1.0000
  O   O4        1.0  0.66339  0.27930  0.39832  1.0000
  O   O5        1.0  0.35081  0.81730  0.99452  1.0000
  O   O6        1.0  0.64919  0.68270  0.49453  1.0000
  O   O7        1.0  0.64920  0.18269  0.00548  1.0000
  O   O8        1.0  0.35082  0.31733  0.50547  1.0000
