data_image0
_chemical_formula_structural       Co2H22C34N6O8
_chemical_formula_sum              "Co2 H22 C34 N6 O8"
_cell_length_a       7.65253
_cell_length_b       9.07545
_cell_length_c       10.23
_cell_angle_alpha    89.7429
_cell_angle_beta     96.9925
_cell_angle_gamma    90.5717

_space_group_name_H-M_alt    "P 1"
_space_group_IT_number       1

loop_
  _space_group_symop_operation_xyz
  'x, y, z'

loop_
  _atom_site_type_symbol
  _atom_site_label
  _atom_site_symmetry_multiplicity
  _atom_site_fract_x
  _atom_site_fract_y
  _atom_site_fract_z
  _atom_site_occupancy
  Co  Co1       1.0  0.69563  0.74843  0.20267  1.0000
  Co  Co2       1.0  0.20220  0.25130  0.69994  1.0000
  H   H1        1.0  0.95001  0.09387  0.49603  1.0000
  H   H2        1.0  0.44917  0.91035  0.99848  1.0000
  H   H3        1.0  0.47581  0.22767  0.53594  1.0000
  H   H4        1.0  0.96909  0.76944  0.03742  1.0000
  H   H5        1.0  0.53635  0.07447  0.34665  1.0000
  H   H6        1.0  0.03489  0.92133  0.84693  1.0000
  H   H7        1.0  0.66989  0.58060  0.94675  1.0000
  H   H8        1.0  0.16951  0.42134  0.44289  1.0000
  H   H9        1.0  0.73451  0.32024  0.89533  1.0000
  H   H10       1.0  0.22350  0.68474  0.39075  1.0000
  H   H11       1.0  0.79152  0.13808  0.08248  1.0000
  H   H12       1.0  0.27994  0.86643  0.57772  1.0000
  H   H13       1.0  0.77591  0.22395  0.31028  1.0000
  H   H14       1.0  0.27270  0.77690  0.80605  1.0000
  H   H15       1.0  0.75404  0.32020  0.50390  1.0000
  H   H16       1.0  0.25086  0.67924  0.99910  1.0000
  H   H17       1.0  0.74436  0.45928  0.70912  1.0000
  H   H18       1.0  0.24062  0.53851  0.20484  1.0000
  H   H19       1.0  0.70135  0.73687  0.69543  1.0000
  H   H20       1.0  0.20356  0.25972  0.19212  1.0000
  H   H21       1.0  0.67768  0.85903  0.47716  1.0000
  H   H22       1.0  0.18679  0.13816  0.97484  1.0000
  C   C1        1.0  0.95506  0.90316  0.29111  1.0000
  C   C2        1.0  0.46054  0.09910  0.79052  1.0000
  C   C3        1.0  0.10078  0.00178  0.35054  1.0000
  C   C4        1.0  0.60275  0.99984  0.85172  1.0000
  C   C5        1.0  0.07785  0.09000  0.45876  1.0000
  C   C6        1.0  0.57687  0.91271  0.96096  1.0000
  C   C7        1.0  0.37107  0.16452  0.48034  1.0000
  C   C8        1.0  0.86677  0.83411  0.98194  1.0000
  C   C9        1.0  0.40354  0.07878  0.37434  1.0000
  C   C10       1.0  0.90221  0.91888  0.87507  1.0000
  C   C11       1.0  0.26870  0.99267  0.30832  1.0000
  C   C12       1.0  0.77064  0.00640  0.80878  1.0000
  C   C13       1.0  0.30971  0.89799  0.19497  1.0000
  C   C14       1.0  0.81390  0.10003  0.69431  1.0000
  C   C15       1.0  0.69669  0.49937  0.02487  1.0000
  C   C16       1.0  0.19530  0.50248  0.52093  1.0000
  C   C17       1.0  0.73262  0.35408  0.99700  1.0000
  C   C18       1.0  0.22554  0.64959  0.49265  1.0000
  C   C19       1.0  0.76258  0.25281  0.10027  1.0000
  C   C20       1.0  0.25479  0.75046  0.59581  1.0000
  C   C21       1.0  0.75481  0.30109  0.22814  1.0000
  C   C22       1.0  0.25161  0.70021  0.72397  1.0000
  C   C23       1.0  0.72246  0.44930  0.25053  1.0000
  C   C24       1.0  0.22388  0.55067  0.74663  1.0000
  C   C25       1.0  0.71929  0.51493  0.37971  1.0000
  C   C26       1.0  0.22278  0.48399  0.87604  1.0000
  C   C27       1.0  0.73558  0.43918  0.49956  1.0000
  C   C28       1.0  0.23542  0.55966  0.99541  1.0000
  C   C29       1.0  0.73015  0.51800  0.61548  1.0000
  C   C30       1.0  0.22958  0.47993  0.11150  1.0000
  C   C31       1.0  0.70708  0.67013  0.60794  1.0000
  C   C32       1.0  0.21012  0.32712  0.10461  1.0000
  C   C33       1.0  0.69238  0.74006  0.48556  1.0000
  C   C34       1.0  0.19936  0.25746  0.98273  1.0000
  N   N1        1.0  0.21187  0.16730  0.52581  1.0000
  N   N2        1.0  0.70788  0.83372  0.02814  1.0000
  N   N3        1.0  0.69459  0.54915  0.14909  1.0000
  N   N4        1.0  0.19733  0.45100  0.64539  1.0000
  N   N5        1.0  0.70026  0.66412  0.37393  1.0000
  N   N6        1.0  0.20733  0.33427  0.87093  1.0000
  O   O1        1.0  0.79344  0.94495  0.27965  1.0000
  O   O2        1.0  0.29784  0.05704  0.77767  1.0000
  O   O3        1.0  0.99363  0.77565  0.25461  1.0000
  O   O4        1.0  0.50282  0.22650  0.75372  1.0000
  O   O5        1.0  0.42584  0.80003  0.22572  1.0000
  O   O6        1.0  0.93200  0.19827  0.72395  1.0000
  O   O7        1.0  0.23290  0.92742  0.08225  1.0000
  O   O8        1.0  0.73603  0.06995  0.58200  1.0000
