data_image0
_chemical_formula_structural       Na4H24C8S8O16
_chemical_formula_sum              "Na4 H24 C8 S8 O16"
_cell_length_a       5.54806
_cell_length_b       11.0331
_cell_length_c       11.4126
_cell_angle_alpha    90.0015
_cell_angle_beta     103.448
_cell_angle_gamma    89.9967

_space_group_name_H-M_alt    "P 1"
_space_group_IT_number       1

loop_
  _space_group_symop_operation_xyz
  'x, y, z'

loop_
  _atom_site_type_symbol
  _atom_site_label
  _atom_site_symmetry_multiplicity
  _atom_site_fract_x
  _atom_site_fract_y
  _atom_site_fract_z
  _atom_site_occupancy
  Na  Na1       1.0  0.22718  0.09205  0.24222  1.0000
  Na  Na2       1.0  0.72718  0.90795  0.24221  1.0000
  Na  Na3       1.0  0.97888  0.40048  0.24288  1.0000
  Na  Na4       1.0  0.47887  0.59952  0.24288  1.0000
  H   H1        1.0  0.17658  0.47962  0.95872  1.0000
  H   H2        1.0  0.67660  0.52039  0.95870  1.0000
  H   H3        1.0  0.35155  0.39157  0.87508  1.0000
  H   H4        1.0  0.85156  0.60843  0.87507  1.0000
  H   H5        1.0  0.89320  0.36451  0.79803  1.0000
  H   H6        1.0  0.39319  0.63548  0.79802  1.0000
  H   H7        1.0  0.86751  0.30954  0.94140  1.0000
  H   H8        1.0  0.36749  0.69046  0.94140  1.0000
  H   H9        1.0  0.15175  0.29591  0.60777  1.0000
  H   H10       1.0  0.65177  0.70410  0.60777  1.0000
  H   H11       1.0  0.37118  0.19620  0.56927  1.0000
  H   H12       1.0  0.87118  0.80378  0.56926  1.0000
  H   H13       1.0  0.87663  0.10103  0.60986  1.0000
  H   H14       1.0  0.37660  0.89897  0.60986  1.0000
  H   H15       1.0  0.06838  0.03169  0.52167  1.0000
  H   H16       1.0  0.56835  0.96830  0.52167  1.0000
  H   H17       1.0  0.75239  0.11432  0.08156  1.0000
  H   H18       1.0  0.25238  0.88569  0.08155  1.0000
  H   H19       1.0  0.93378  0.02454  0.03688  1.0000
  H   H20       1.0  0.43374  0.97546  0.03688  1.0000
  H   H21       1.0  0.43853  0.39206  0.42800  1.0000
  H   H22       1.0  0.93851  0.60794  0.42800  1.0000
  H   H23       1.0  0.35555  0.52563  0.44881  1.0000
  H   H24       1.0  0.85555  0.47437  0.44881  1.0000
  C   C1        1.0  0.22545  0.38752  0.93634  1.0000
  C   C2        1.0  0.72545  0.61249  0.93633  1.0000
  C   C3        1.0  0.99269  0.31696  0.87980  1.0000
  C   C4        1.0  0.49267  0.68303  0.87979  1.0000
  C   C5        1.0  0.21208  0.20096  0.61135  1.0000
  C   C6        1.0  0.71208  0.79904  0.61135  1.0000
  C   C7        1.0  0.00235  0.11810  0.54996  1.0000
  C   C8        1.0  0.50233  0.88190  0.54995  1.0000
  S   S1        1.0  0.40808  0.32669  0.07550  1.0000
  S   S2        1.0  0.90807  0.67332  0.07548  1.0000
  S   S3        1.0  0.03628  0.15871  0.84091  1.0000
  S   S4        1.0  0.53624  0.84129  0.84091  1.0000
  S   S5        1.0  0.33890  0.15888  0.76871  1.0000
  S   S6        1.0  0.83887  0.84111  0.76872  1.0000
  S   S7        1.0  0.81424  0.18440  0.41672  1.0000
  S   S8        1.0  0.31423  0.81559  0.41670  1.0000
  O   O1        1.0  0.55936  0.42920  0.13548  1.0000
  O   O2        1.0  0.05937  0.57080  0.13546  1.0000
  O   O3        1.0  0.23223  0.28200  0.14398  1.0000
  O   O4        1.0  0.73221  0.71801  0.14397  1.0000
  O   O5        1.0  0.56386  0.23188  0.04136  1.0000
  O   O6        1.0  0.06384  0.76812  0.04136  1.0000
  O   O7        1.0  0.98048  0.21198  0.33685  1.0000
  O   O8        1.0  0.48047  0.78801  0.33683  1.0000
  O   O9        1.0  0.62770  0.09158  0.36552  1.0000
  O   O10       1.0  0.12768  0.90842  0.36552  1.0000
  O   O11       1.0  0.70631  0.29493  0.45659  1.0000
  O   O12       1.0  0.20631  0.70508  0.45658  1.0000
  O   O13       1.0  0.84968  0.03867  0.10175  1.0000
  O   O14       1.0  0.34965  0.96134  0.10175  1.0000
  O   O15       1.0  0.29692  0.44854  0.41064  1.0000
  O   O16       1.0  0.79690  0.55146  0.41064  1.0000
