data_image0
_chemical_formula_structural       Na4H36C28S4Br4N4Cl4O14
_chemical_formula_sum              "Na4 H36 C28 S4 Br4 N4 Cl4 O14"
_cell_length_a       6.33181
_cell_length_b       6.33242
_cell_length_c       30.717
_cell_angle_alpha    93.6158
_cell_angle_beta     92.8851
_cell_angle_gamma    116.659

_space_group_name_H-M_alt    "P 1"
_space_group_IT_number       1

loop_
  _space_group_symop_operation_xyz
  'x, y, z'

loop_
  _atom_site_type_symbol
  _atom_site_label
  _atom_site_symmetry_multiplicity
  _atom_site_fract_x
  _atom_site_fract_y
  _atom_site_fract_z
  _atom_site_occupancy
  Na  Na1       1.0  0.46834  0.92048  0.26341  1.0000
  Na  Na2       1.0  0.15705  0.20517  0.23668  1.0000
  Na  Na3       1.0  0.53164  0.07951  0.73659  1.0000
  Na  Na4       1.0  0.84294  0.79484  0.76332  1.0000
  H   H1        1.0  0.41820  0.05106  0.47237  1.0000
  H   H2        1.0  0.07888  0.94635  0.02772  1.0000
  H   H3        1.0  0.58179  0.94893  0.52763  1.0000
  H   H4        1.0  0.92115  0.05366  0.97228  1.0000
  H   H5        1.0  0.95654  0.38261  0.46034  1.0000
  H   H6        1.0  0.42266  0.49687  0.03976  1.0000
  H   H7        1.0  0.04346  0.61738  0.53966  1.0000
  H   H8        1.0  0.57735  0.50311  0.96024  1.0000
  H   H9        1.0  0.84288  0.21082  0.38283  1.0000
  H   H10       1.0  0.32852  0.46088  0.11730  1.0000
  H   H11       1.0  0.15711  0.78918  0.61718  1.0000
  H   H12       1.0  0.67148  0.53910  0.88270  1.0000
  H   H13       1.0  0.46277  0.82634  0.41636  1.0000
  H   H14       1.0  0.91038  0.04715  0.08379  1.0000
  H   H15       1.0  0.53722  0.17365  0.58364  1.0000
  H   H16       1.0  0.08966  0.95288  0.91621  1.0000
  H   H17       1.0  0.42863  0.89791  0.36227  1.0000
  H   H18       1.0  0.03631  0.06701  0.13784  1.0000
  H   H19       1.0  0.57137  0.10209  0.63773  1.0000
  H   H20       1.0  0.96373  0.93300  0.86216  1.0000
  H   H21       1.0  0.19696  0.65141  0.38220  1.0000
  H   H22       1.0  0.76975  0.81561  0.11799  1.0000
  H   H23       1.0  0.80303  0.34858  0.61780  1.0000
  H   H24       1.0  0.23029  0.18441  0.88200  1.0000
  H   H25       1.0  0.74406  0.79268  0.19643  1.0000
  H   H26       1.0  0.09614  0.54788  0.30365  1.0000
  H   H27       1.0  0.25594  0.20733  0.80357  1.0000
  H   H28       1.0  0.90384  0.45212  0.69635  1.0000
  H   H29       1.0  0.69521  0.00832  0.18733  1.0000
  H   H30       1.0  0.32090  0.50810  0.31275  1.0000
  H   H31       1.0  0.30478  0.99168  0.81267  1.0000
  H   H32       1.0  0.67908  0.49189  0.68725  1.0000
  H   H33       1.0  0.68556  0.44653  0.27542  1.0000
  H   H34       1.0  0.67118  0.41015  0.22466  1.0000
  H   H35       1.0  0.31442  0.55347  0.72459  1.0000
  H   H36       1.0  0.32881  0.58986  0.77534  1.0000
  C   C1        1.0  0.06462  0.03468  0.38409  1.0000
  C   C2        1.0  0.15080  0.68109  0.11602  1.0000
  C   C3        1.0  0.93536  0.96533  0.61591  1.0000
  C   C4        1.0  0.84923  0.31892  0.88398  1.0000
  C   C5        1.0  0.22995  0.98684  0.40887  1.0000
  C   C6        1.0  0.07836  0.82180  0.09125  1.0000
  C   C7        1.0  0.77005  0.01316  0.59113  1.0000
  C   C8        1.0  0.92165  0.17819  0.90875  1.0000
  C   C9        1.0  0.29204  0.08597  0.45247  1.0000
  C   C10       1.0  0.13354  0.84000  0.04762  1.0000
  C   C11       1.0  0.70795  0.91401  0.54752  1.0000
  C   C12       1.0  0.86650  0.16002  0.95238  1.0000
  C   C13       1.0  0.19211  0.22329  0.47093  1.0000
  C   C14       1.0  0.25252  0.72171  0.02916  1.0000
  C   C15       1.0  0.80789  0.77670  0.52908  1.0000
  C   C16       1.0  0.74749  0.27830  0.97084  1.0000
  C   C17       1.0  0.03245  0.27298  0.44612  1.0000
  C   C18       1.0  0.32711  0.58692  0.05397  1.0000
  C   C19       1.0  0.96755  0.72701  0.55388  1.0000
  C   C20       1.0  0.67290  0.41308  0.94603  1.0000
  C   C21       1.0  0.96957  0.17688  0.40267  1.0000
  C   C22       1.0  0.27465  0.56767  0.09745  1.0000
  C   C23       1.0  0.03042  0.82312  0.59733  1.0000
  C   C24       1.0  0.72535  0.43232  0.90255  1.0000
  C   C25       1.0  0.33605  0.83308  0.39154  1.0000
  C   C26       1.0  0.94201  0.94523  0.10859  1.0000
  C   C27       1.0  0.66394  0.16692  0.60846  1.0000
  C   C28       1.0  0.05802  0.05480  0.89141  1.0000
  S   S1        1.0  0.95869  0.90937  0.32858  1.0000
  S   S2        1.0  0.08082  0.63048  0.17151  1.0000
  S   S3        1.0  0.04130  0.09063  0.67142  1.0000
  S   S4        1.0  0.91919  0.36953  0.82848  1.0000
  Br  Br1       1.0  0.62302  0.47638  0.36261  1.0000
  Br  Br2       1.0  0.61401  0.26067  0.13744  1.0000
  Br  Br3       1.0  0.37697  0.52362  0.63739  1.0000
  Br  Br4       1.0  0.38600  0.73934  0.86256  1.0000
  N   N1        1.0  0.87335  0.62893  0.32562  1.0000
  N   N2        1.0  0.80326  0.54774  0.17444  1.0000
  N   N3        1.0  0.12663  0.37108  0.67438  1.0000
  N   N4        1.0  0.19675  0.45227  0.82556  1.0000
  Cl  Cl1       1.0  0.26269  0.32779  0.52572  1.0000
  Cl  Cl2       1.0  0.30181  0.73697  0.97432  1.0000
  Cl  Cl3       1.0  0.73731  0.67219  0.47428  1.0000
  Cl  Cl4       1.0  0.69821  0.26303  0.02568  1.0000
  O   O1        1.0  0.15915  0.99401  0.30122  1.0000
  O   O2        1.0  0.19250  0.85814  0.19891  1.0000
  O   O3        1.0  0.84083  0.00599  0.69878  1.0000
  O   O4        1.0  0.80751  0.14186  0.80109  1.0000
  O   O5        1.0  0.77415  0.97997  0.31717  1.0000
  O   O6        1.0  0.16304  0.45753  0.18293  1.0000
  O   O7        1.0  0.22584  0.02003  0.68283  1.0000
  O   O8        1.0  0.83697  0.54248  0.81708  1.0000
  O   O9        1.0  0.74209  0.93670  0.21094  1.0000
  O   O10       1.0  0.22571  0.53140  0.28914  1.0000
  O   O11       1.0  0.25791  0.06330  0.78906  1.0000
  O   O12       1.0  0.77427  0.46859  0.71086  1.0000
  O   O13       1.0  0.58539  0.33534  0.25004  1.0000
  O   O14       1.0  0.41459  0.66466  0.74996  1.0000
