data_image0
_chemical_formula_structural       H20Pb2C24N2O10
_chemical_formula_sum              "H20 Pb2 C24 N2 O10"
_cell_length_a       7.17876
_cell_length_b       9.02952
_cell_length_c       9.92263
_cell_angle_alpha    79.2948
_cell_angle_beta     71.2996
_cell_angle_gamma    86.2937

_space_group_name_H-M_alt    "P 1"
_space_group_IT_number       1

loop_
  _space_group_symop_operation_xyz
  'x, y, z'

loop_
  _atom_site_type_symbol
  _atom_site_label
  _atom_site_symmetry_multiplicity
  _atom_site_fract_x
  _atom_site_fract_y
  _atom_site_fract_z
  _atom_site_occupancy
  H   H1        1.0  0.50234  0.85618  0.29705  1.0000
  H   H2        1.0  0.49765  0.14384  0.70295  1.0000
  H   H3        1.0  0.27274  0.83498  0.32215  1.0000
  H   H4        1.0  0.72725  0.16504  0.67785  1.0000
  H   H5        1.0  0.70128  0.88167  0.89036  1.0000
  H   H6        1.0  0.29871  0.11832  0.10965  1.0000
  H   H7        1.0  0.93473  0.90861  0.90587  1.0000
  H   H8        1.0  0.06526  0.09139  0.09413  1.0000
  H   H9        1.0  0.75275  0.80041  0.05201  1.0000
  H   H10       1.0  0.24725  0.19959  0.94799  1.0000
  H   H11       1.0  0.69507  0.26505  0.07979  1.0000
  H   H12       1.0  0.30493  0.73495  0.92020  1.0000
  H   H13       1.0  0.74034  0.19884  0.91391  1.0000
  H   H14       1.0  0.25966  0.80115  0.08609  1.0000
  H   H15       1.0  0.54834  0.33292  0.96885  1.0000
  H   H16       1.0  0.45166  0.66708  0.03114  1.0000
  H   H17       1.0  0.19363  0.52980  0.43212  1.0000
  H   H18       1.0  0.80638  0.47020  0.56788  1.0000
  H   H19       1.0  0.51349  0.48108  0.24975  1.0000
  H   H20       1.0  0.48652  0.51891  0.75026  1.0000
  Pb  Pb1       1.0  0.25458  0.12264  0.45605  1.0000
  Pb  Pb2       1.0  0.74542  0.87736  0.54395  1.0000
  C   C1        1.0  0.88859  0.68391  0.87598  1.0000
  C   C2        1.0  0.11141  0.31609  0.12401  1.0000
  C   C3        1.0  0.06286  0.68095  0.75884  1.0000
  C   C4        1.0  0.93714  0.31905  0.24116  1.0000
  C   C5        1.0  0.13068  0.54287  0.71558  1.0000
  C   C6        1.0  0.86931  0.45713  0.28442  1.0000
  C   C7        1.0  0.01112  0.41523  0.78008  1.0000
  C   C8        1.0  0.98889  0.58477  0.21992  1.0000
  C   C9        1.0  0.83551  0.42785  0.89277  1.0000
  C   C10       1.0  0.16449  0.57215  0.10723  1.0000
  C   C11       1.0  0.81613  0.82648  0.93412  1.0000
  C   C12       1.0  0.18386  0.17352  0.06588  1.0000
  C   C13       1.0  0.16187  0.82448  0.67154  1.0000
  C   C14       1.0  0.83813  0.17552  0.32845  1.0000
  C   C15       1.0  0.07066  0.27719  0.71056  1.0000
  C   C16       1.0  0.92934  0.72281  0.28944  1.0000
  C   C17       1.0  0.69876  0.29786  0.96649  1.0000
  C   C18       1.0  0.30124  0.70214  0.03350  1.0000
  C   C19       1.0  0.32095  0.52730  0.60220  1.0000
  C   C20       1.0  0.67907  0.47269  0.39780  1.0000
  C   C21       1.0  0.32770  0.51432  0.46217  1.0000
  C   C22       1.0  0.67230  0.48568  0.53785  1.0000
  C   C23       1.0  0.50594  0.48725  0.36020  1.0000
  C   C24       1.0  0.49405  0.51274  0.63979  1.0000
  N   N1        1.0  0.78259  0.55872  0.94211  1.0000
  N   N2        1.0  0.21741  0.44128  0.05789  1.0000
  O   O1        1.0  0.05208  0.91629  0.61231  1.0000
  O   O2        1.0  0.94793  0.08372  0.38769  1.0000
  O   O3        1.0  0.33715  0.85477  0.65334  1.0000
  O   O4        1.0  0.66285  0.14522  0.34666  1.0000
  O   O5        1.0  0.22876  0.20659  0.71201  1.0000
  O   O6        1.0  0.77124  0.79341  0.28799  1.0000
  O   O7        1.0  0.96359  0.24719  0.63746  1.0000
  O   O8        1.0  0.03642  0.75281  0.36255  1.0000
  O   O9        1.0  0.37733  0.90976  0.30243  1.0000
  O   O10       1.0  0.62266  0.09025  0.69757  1.0000
