data_image0
_chemical_formula_structural       Zn2H40C44N4O8
_chemical_formula_sum              "Zn2 H40 C44 N4 O8"
_cell_length_a       7.77843
_cell_length_b       10.9158
_cell_length_c       12.9159
_cell_angle_alpha    89.9243
_cell_angle_beta     87.296
_cell_angle_gamma    73.5897

_space_group_name_H-M_alt    "P 1"
_space_group_IT_number       1

loop_
  _space_group_symop_operation_xyz
  'x, y, z'

loop_
  _atom_site_type_symbol
  _atom_site_label
  _atom_site_symmetry_multiplicity
  _atom_site_fract_x
  _atom_site_fract_y
  _atom_site_fract_z
  _atom_site_occupancy
  Zn  Zn1       1.0  0.99506  0.87334  0.31406  1.0000
  Zn  Zn2       1.0  0.00493  0.12666  0.68594  1.0000
  H   H1        1.0  0.55351  0.69494  0.40939  1.0000
  H   H2        1.0  0.44649  0.30507  0.59060  1.0000
  H   H3        1.0  0.58519  0.72983  0.27838  1.0000
  H   H4        1.0  0.41480  0.27017  0.72162  1.0000
  H   H5        1.0  0.64204  0.54904  0.14292  1.0000
  H   H6        1.0  0.35796  0.45097  0.85708  1.0000
  H   H7        1.0  0.80104  0.31700  0.10920  1.0000
  H   H8        1.0  0.19896  0.68300  0.89080  1.0000
  H   H9        1.0  0.79408  0.24814  0.43559  1.0000
  H   H10       1.0  0.20592  0.75186  0.56441  1.0000
  H   H11       1.0  0.64396  0.47848  0.47075  1.0000
  H   H12       1.0  0.35604  0.52152  0.52925  1.0000
  H   H13       1.0  0.96166  0.62909  0.41076  1.0000
  H   H14       1.0  0.03834  0.37091  0.58924  1.0000
  H   H15       1.0  0.81805  0.56586  0.57386  1.0000
  H   H16       1.0  0.18195  0.43414  0.42614  1.0000
  H   H17       1.0  0.64341  0.96609  0.65993  1.0000
  H   H18       1.0  0.35658  0.03391  0.34007  1.0000
  H   H19       1.0  0.78849  0.01158  0.49507  1.0000
  H   H20       1.0  0.21151  0.98842  0.50493  1.0000
  H   H21       1.0  0.49018  0.78342  0.73473  1.0000
  H   H22       1.0  0.50983  0.21657  0.26527  1.0000
  H   H23       1.0  0.63251  0.62551  0.72506  1.0000
  H   H24       1.0  0.36749  0.37449  0.27494  1.0000
  H   H25       1.0  0.72405  0.85259  0.82871  1.0000
  H   H26       1.0  0.27595  0.14740  0.17128  1.0000
  H   H27       1.0  0.86843  0.69748  0.81741  1.0000
  H   H28       1.0  0.13157  0.30251  0.18259  1.0000
  H   H29       1.0  0.49345  0.76325  0.92768  1.0000
  H   H30       1.0  0.50656  0.23674  0.07232  1.0000
  H   H31       1.0  0.65323  0.61124  0.92164  1.0000
  H   H32       1.0  0.34677  0.38876  0.07836  1.0000
  H   H33       1.0  0.49440  0.90591  0.07016  1.0000
  H   H34       1.0  0.50560  0.09409  0.92985  1.0000
  H   H35       1.0  0.65179  0.96048  0.22034  1.0000
  H   H36       1.0  0.34821  0.03952  0.77966  1.0000
  H   H37       1.0  0.10526  0.66057  0.15332  1.0000
  H   H38       1.0  0.89474  0.33943  0.84668  1.0000
  H   H39       1.0  0.97461  0.60162  0.99287  1.0000
  H   H40       1.0  0.02540  0.39839  0.00712  1.0000
  C   C1        1.0  0.33038  0.70290  0.31921  1.0000
  C   C2        1.0  0.66961  0.29710  0.68079  1.0000
  C   C3        1.0  0.53343  0.66716  0.33000  1.0000
  C   C4        1.0  0.46657  0.33284  0.67000  1.0000
  C   C5        1.0  0.63129  0.52949  0.30922  1.0000
  C   C6        1.0  0.36871  0.47051  0.69078  1.0000
  C   C7        1.0  0.67714  0.48313  0.20731  1.0000
  C   C8        1.0  0.32287  0.51688  0.79269  1.0000
  C   C9        1.0  0.76540  0.35469  0.18797  1.0000
  C   C10       1.0  0.23460  0.64531  0.81203  1.0000
  C   C11       1.0  0.80716  0.26921  0.27026  1.0000
  C   C12       1.0  0.19284  0.73079  0.72974  1.0000
  C   C13       1.0  0.76187  0.31505  0.37198  1.0000
  C   C14       1.0  0.23814  0.68496  0.62802  1.0000
  C   C15       1.0  0.67663  0.44386  0.39104  1.0000
  C   C16       1.0  0.32337  0.55614  0.60896  1.0000
  C   C17       1.0  0.89334  0.12941  0.24932  1.0000
  C   C18       1.0  0.10666  0.87060  0.75069  1.0000
  C   C19       1.0  0.88809  0.69963  0.46847  1.0000
  C   C20       1.0  0.11191  0.30038  0.53153  1.0000
  C   C21       1.0  0.80908  0.66568  0.55850  1.0000
  C   C22       1.0  0.19093  0.33432  0.44150  1.0000
  C   C23       1.0  0.71640  0.76035  0.63011  1.0000
  C   C24       1.0  0.28360  0.23965  0.36989  1.0000
  C   C25       1.0  0.70930  0.88717  0.60709  1.0000
  C   C26       1.0  0.29069  0.11283  0.39291  1.0000
  C   C27       1.0  0.79152  0.91422  0.51577  1.0000
  C   C28       1.0  0.20847  0.08579  0.48423  1.0000
  C   C29       1.0  0.63160  0.72636  0.72838  1.0000
  C   C30       1.0  0.36840  0.27363  0.27162  1.0000
  C   C31       1.0  0.72577  0.75159  0.82420  1.0000
  C   C32       1.0  0.27424  0.24840  0.17580  1.0000
  C   C33       1.0  0.63831  0.71475  0.92406  1.0000
  C   C34       1.0  0.36170  0.28525  0.07594  1.0000
  C   C35       1.0  0.72208  0.74833  0.01821  1.0000
  C   C36       1.0  0.27792  0.25167  0.98178  1.0000
  C   C37       1.0  0.63163  0.85045  0.08398  1.0000
  C   C38       1.0  0.36837  0.14954  0.91602  1.0000
  C   C39       1.0  0.71709  0.88049  0.16832  1.0000
  C   C40       1.0  0.28290  0.11950  0.83169  1.0000
  C   C41       1.0  0.97232  0.71368  0.12951  1.0000
  C   C42       1.0  0.02768  0.28632  0.87049  1.0000
  C   C43       1.0  0.89690  0.68053  0.04241  1.0000
  C   C44       1.0  0.10310  0.31947  0.95759  1.0000
  N   N1        1.0  0.87929  0.82207  0.44695  1.0000
  N   N2        1.0  0.12071  0.17793  0.55305  1.0000
  N   N3        1.0  0.88385  0.81277  0.19158  1.0000
  N   N4        1.0  0.11614  0.18723  0.80842  1.0000
  O   O1        1.0  0.25681  0.82567  0.31774  1.0000
  O   O2        1.0  0.74318  0.17433  0.68227  1.0000
  O   O3        1.0  0.24711  0.62066  0.31408  1.0000
  O   O4        1.0  0.75289  0.37934  0.68593  1.0000
  O   O5        1.0  0.96148  0.08961  0.16223  1.0000
  O   O6        1.0  0.03851  0.91039  0.83778  1.0000
  O   O7        1.0  0.88555  0.05764  0.32967  1.0000
  O   O8        1.0  0.11445  0.94237  0.67034  1.0000
