data_image0
_chemical_formula_structural       Cd2H32C36N4O12
_chemical_formula_sum              "Cd2 H32 C36 N4 O12"
_cell_length_a       7.07341
_cell_length_b       9.99403
_cell_length_c       12.1949
_cell_angle_alpha    93.2946
_cell_angle_beta     101.927
_cell_angle_gamma    90.6036

_space_group_name_H-M_alt    "P 1"
_space_group_IT_number       1

loop_
  _space_group_symop_operation_xyz
  'x, y, z'

loop_
  _atom_site_type_symbol
  _atom_site_label
  _atom_site_symmetry_multiplicity
  _atom_site_fract_x
  _atom_site_fract_y
  _atom_site_fract_z
  _atom_site_occupancy
  Cd  Cd1       1.0  0.16971  0.01569  0.24000  1.0000
  Cd  Cd2       1.0  0.83029  0.98431  0.76000  1.0000
  H   H1        1.0  0.97353  0.49321  0.08907  1.0000
  H   H2        1.0  0.02647  0.50679  0.91093  1.0000
  H   H3        1.0  0.75859  0.68754  0.10034  1.0000
  H   H4        1.0  0.24141  0.31246  0.89966  1.0000
  H   H5        1.0  0.43690  0.65303  0.14641  1.0000
  H   H6        1.0  0.56310  0.34697  0.85359  1.0000
  H   H7        1.0  0.32790  0.42085  0.17893  1.0000
  H   H8        1.0  0.67210  0.57915  0.82107  1.0000
  H   H9        1.0  0.11335  0.69238  0.21149  1.0000
  H   H10       1.0  0.88665  0.30762  0.78851  1.0000
  H   H11       1.0  0.11894  0.48903  0.32437  1.0000
  H   H12       1.0  0.88106  0.51097  0.67563  1.0000
  H   H13       1.0  0.18187  0.52472  0.53566  1.0000
  H   H14       1.0  0.81813  0.47528  0.46433  1.0000
  H   H15       1.0  0.22903  0.75539  0.62275  1.0000
  H   H16       1.0  0.77097  0.24461  0.37725  1.0000
  H   H17       1.0  0.25613  0.94793  0.68387  1.0000
  H   H18       1.0  0.74386  0.05207  0.31613  1.0000
  H   H19       1.0  0.33743  0.18315  0.75137  1.0000
  H   H20       1.0  0.66257  0.81685  0.24863  1.0000
  H   H21       1.0  0.37042  0.35381  0.61267  1.0000
  H   H22       1.0  0.62959  0.64619  0.38733  1.0000
  H   H23       1.0  0.30647  0.27649  0.40594  1.0000
  H   H24       1.0  0.69353  0.72351  0.59406  1.0000
  H   H25       1.0  0.42430  0.95587  0.10911  1.0000
  H   H26       1.0  0.57570  0.04413  0.89089  1.0000
  H   H27       1.0  0.77587  0.98107  0.11009  1.0000
  H   H28       1.0  0.22414  0.01893  0.88991  1.0000
  H   H29       1.0  0.90696  0.88629  0.04842  1.0000
  H   H30       1.0  0.09304  0.11371  0.95158  1.0000
  H   H31       1.0  0.24248  0.85405  0.05766  1.0000
  H   H32       1.0  0.75752  0.14595  0.94234  1.0000
  C   C1        1.0  0.91152  0.23718  0.13337  1.0000
  C   C2        1.0  0.08848  0.76282  0.86663  1.0000
  C   C3        1.0  0.77207  0.34987  0.12880  1.0000
  C   C4        1.0  0.22793  0.65013  0.87119  1.0000
  C   C5        1.0  0.83153  0.47859  0.10919  1.0000
  C   C6        1.0  0.16847  0.52141  0.89080  1.0000
  C   C7        1.0  0.71141  0.58734  0.11575  1.0000
  C   C8        1.0  0.28858  0.41266  0.88425  1.0000
  C   C9        1.0  0.53070  0.56775  0.14244  1.0000
  C   C10       1.0  0.46930  0.43225  0.85756  1.0000
  C   C11       1.0  0.47008  0.43924  0.16060  1.0000
  C   C12       1.0  0.52992  0.56076  0.83940  1.0000
  C   C13       1.0  0.58841  0.32908  0.15286  1.0000
  C   C14       1.0  0.41159  0.67092  0.84714  1.0000
  C   C15       1.0  0.51218  0.19092  0.16542  1.0000
  C   C16       1.0  0.48782  0.80908  0.83458  1.0000
  C   C17       1.0  0.14123  0.70118  0.30297  1.0000
  C   C18       1.0  0.85877  0.29883  0.69703  1.0000
  C   C19       1.0  0.14498  0.58888  0.36609  1.0000
  C   C20       1.0  0.85502  0.41113  0.63391  1.0000
  C   C21       1.0  0.17885  0.60919  0.48272  1.0000
  C   C22       1.0  0.82115  0.39081  0.51728  1.0000
  C   C23       1.0  0.20678  0.73891  0.53202  1.0000
  C   C24       1.0  0.79322  0.26110  0.46799  1.0000
  C   C25       1.0  0.20377  0.84646  0.46283  1.0000
  C   C26       1.0  0.79622  0.15355  0.53717  1.0000
  C   C27       1.0  0.24254  0.98714  0.50922  1.0000
  C   C28       1.0  0.75746  0.01286  0.49078  1.0000
  C   C29       1.0  0.27002  0.02228  0.62423  1.0000
  C   C30       1.0  0.72998  0.97772  0.37577  1.0000
  C   C31       1.0  0.31511  0.15513  0.66215  1.0000
  C   C32       1.0  0.68489  0.84487  0.33785  1.0000
  C   C33       1.0  0.33127  0.24980  0.58489  1.0000
  C   C34       1.0  0.66873  0.75020  0.41511  1.0000
  C   C35       1.0  0.29740  0.20805  0.47131  1.0000
  C   C36       1.0  0.70260  0.79195  0.52869  1.0000
  N   N1        1.0  0.17054  0.82585  0.35011  1.0000
  N   N2        1.0  0.82946  0.17415  0.64989  1.0000
  N   N3        1.0  0.25416  0.08018  0.43499  1.0000
  N   N4        1.0  0.74584  0.91983  0.56501  1.0000
  O   O1        1.0  0.96965  0.19386  0.23078  1.0000
  O   O2        1.0  0.03035  0.80614  0.76922  1.0000
  O   O3        1.0  0.33234  0.88740  0.12797  1.0000
  O   O4        1.0  0.66766  0.11260  0.87203  1.0000
  O   O5        1.0  0.87740  0.91316  0.12226  1.0000
  O   O6        1.0  0.12261  0.08684  0.87773  1.0000
  O   O7        1.0  0.96368  0.19615  0.04407  1.0000
  O   O8        1.0  0.03632  0.80385  0.95593  1.0000
  O   O9        1.0  0.39051  0.18446  0.22854  1.0000
  O   O10       1.0  0.60948  0.81554  0.77146  1.0000
  O   O11       1.0  0.56959  0.09100  0.11162  1.0000
  O   O12       1.0  0.43041  0.90900  0.88838  1.0000
