data_image0
_chemical_formula_structural       Cu4H12C20S8N8
_chemical_formula_sum              "Cu4 H12 C20 S8 N8"
_cell_length_a       6.9165
_cell_length_b       6.91565
_cell_length_c       15.0743
_cell_angle_alpha    89.4175
_cell_angle_beta     90.472
_cell_angle_gamma    89.6877

_space_group_name_H-M_alt    "P 1"
_space_group_IT_number       1

loop_
  _space_group_symop_operation_xyz
  'x, y, z'

loop_
  _atom_site_type_symbol
  _atom_site_label
  _atom_site_symmetry_multiplicity
  _atom_site_fract_x
  _atom_site_fract_y
  _atom_site_fract_z
  _atom_site_occupancy
  Cu  Cu1       1.0  0.50140  0.50277  0.49897  1.0000
  Cu  Cu2       1.0  0.99720  0.99864  0.99900  1.0000
  Cu  Cu3       1.0  0.49964  0.00034  0.76548  1.0000
  Cu  Cu4       1.0  0.49795  0.00173  0.26544  1.0000
  H   H1        1.0  0.50400  0.31497  0.91493  1.0000
  H   H2        1.0  0.49006  0.68249  0.08288  1.0000
  H   H3        1.0  0.50470  0.68040  0.91430  1.0000
  H   H4        1.0  0.49034  0.31400  0.08559  1.0000
  H   H5        1.0  0.18860  0.00922  0.58576  1.0000
  H   H6        1.0  0.81713  0.99583  0.41426  1.0000
  H   H7        1.0  0.82018  0.00931  0.58287  1.0000
  H   H8        1.0  0.18250  0.99645  0.41499  1.0000
  H   H9        1.0  0.01021  0.48616  0.86142  1.0000
  H   H10       1.0  0.99307  0.51067  0.13938  1.0000
  H   H11       1.0  0.99683  0.50983  0.63944  1.0000
  H   H12       1.0  0.00524  0.48792  0.36139  1.0000
  C   C1        1.0  0.50353  0.39890  0.85348  1.0000
  C   C2        1.0  0.49343  0.59931  0.14458  1.0000
  C   C3        1.0  0.50394  0.59856  0.85309  1.0000
  C   C4        1.0  0.49338  0.39901  0.14594  1.0000
  C   C5        1.0  0.10322  0.00564  0.64606  1.0000
  C   C6        1.0  0.89939  0.99707  0.35306  1.0000
  C   C7        1.0  0.90291  0.00551  0.64461  1.0000
  C   C8        1.0  0.09900  0.99750  0.35351  1.0000
  C   C9        1.0  0.10291  0.99914  0.79899  1.0000
  C   C10       1.0  0.89387  0.99903  0.19981  1.0000
  C   C11       1.0  0.89820  0.99876  0.79732  1.0000
  C   C12       1.0  0.10111  0.00013  0.20036  1.0000
  C   C13       1.0  0.50298  0.60481  0.69986  1.0000
  C   C14       1.0  0.49885  0.39834  0.29886  1.0000
  C   C15       1.0  0.50205  0.39753  0.70029  1.0000
  C   C16       1.0  0.49923  0.60306  0.29731  1.0000
  C   C17       1.0  0.00125  0.50195  0.71036  1.0000
  C   C18       1.0  0.00144  0.49524  0.29043  1.0000
  C   C19       1.0  0.00596  0.49362  0.79045  1.0000
  C   C20       1.0  0.99725  0.50286  0.21031  1.0000
  S   S1        1.0  0.22956  0.99678  0.89824  1.0000
  S   S2        1.0  0.76823  0.99903  0.10047  1.0000
  S   S3        1.0  0.76759  0.99557  0.89470  1.0000
  S   S4        1.0  0.22618  0.00294  0.10198  1.0000
  S   S5        1.0  0.49968  0.27313  0.60190  1.0000
  S   S6        1.0  0.50237  0.73304  0.39476  1.0000
  S   S7        1.0  0.50299  0.73117  0.60053  1.0000
  S   S8        1.0  0.50097  0.27103  0.39806  1.0000
  N   N1        1.0  0.50362  0.70221  0.77648  1.0000
  N   N2        1.0  0.49641  0.29920  0.22319  1.0000
  N   N3        1.0  0.50256  0.29778  0.77716  1.0000
  N   N4        1.0  0.49679  0.70080  0.22037  1.0000
  N   N5        1.0  0.80099  0.00156  0.72035  1.0000
  N   N6        1.0  0.20052  0.99912  0.27724  1.0000
  N   N7        1.0  0.20250  0.00203  0.72335  1.0000
  N   N8        1.0  0.79612  0.99793  0.27642  1.0000
