data_image0
_chemical_formula_structural       Cd2H24C24N4O12
_chemical_formula_sum              "Cd2 H24 C24 N4 O12"
_cell_length_a       7.23507
_cell_length_b       8.63167
_cell_length_c       10.2233
_cell_angle_alpha    89.9998
_cell_angle_beta     90
_cell_angle_gamma    98.4928

_space_group_name_H-M_alt    "P 1"
_space_group_IT_number       1

loop_
  _space_group_symop_operation_xyz
  'x, y, z'

loop_
  _atom_site_type_symbol
  _atom_site_label
  _atom_site_symmetry_multiplicity
  _atom_site_fract_x
  _atom_site_fract_y
  _atom_site_fract_z
  _atom_site_occupancy
  Cd  Cd1       1.0  0.00000  0.49999  0.50000  1.0000
  Cd  Cd2       1.0  0.50000  0.50000  0.00000  1.0000
  H   H1        1.0  0.20065  0.27607  0.62545  1.0000
  H   H2        1.0  0.29934  0.72392  0.12544  1.0000
  H   H3        1.0  0.79935  0.72391  0.37456  1.0000
  H   H4        1.0  0.70065  0.27608  0.87455  1.0000
  H   H5        1.0  0.02368  0.28595  0.71898  1.0000
  H   H6        1.0  0.47632  0.71404  0.21897  1.0000
  H   H7        1.0  0.97632  0.71405  0.28103  1.0000
  H   H8        1.0  0.52368  0.28595  0.78102  1.0000
  H   H9        1.0  0.86566  0.14392  0.45054  1.0000
  H   H10       1.0  0.63435  0.85608  0.95053  1.0000
  H   H11       1.0  0.13434  0.85607  0.54946  1.0000
  H   H12       1.0  0.36567  0.14392  0.04946  1.0000
  H   H13       1.0  0.75447  0.95609  0.26888  1.0000
  H   H14       1.0  0.74553  0.04391  0.76887  1.0000
  H   H15       1.0  0.24553  0.04392  0.73112  1.0000
  H   H16       1.0  0.25447  0.95609  0.23112  1.0000
  H   H17       1.0  0.83204  0.04216  0.03635  1.0000
  H   H18       1.0  0.66795  0.95784  0.53633  1.0000
  H   H19       1.0  0.16795  0.95783  0.96366  1.0000
  H   H20       1.0  0.33205  0.04216  0.46366  1.0000
  H   H21       1.0  0.12082  0.47490  0.19149  1.0000
  H   H22       1.0  0.37918  0.52511  0.69148  1.0000
  H   H23       1.0  0.87918  0.52510  0.80852  1.0000
  H   H24       1.0  0.62083  0.47489  0.30852  1.0000
  C   C1        1.0  0.89432  0.17341  0.34821  1.0000
  C   C2        1.0  0.60567  0.82659  0.84820  1.0000
  C   C3        1.0  0.10568  0.82659  0.65179  1.0000
  C   C4        1.0  0.39433  0.17341  0.15179  1.0000
  C   C5        1.0  0.83544  0.06970  0.24722  1.0000
  C   C6        1.0  0.66455  0.93030  0.74721  1.0000
  C   C7        1.0  0.16456  0.93030  0.75278  1.0000
  C   C8        1.0  0.33545  0.06970  0.25278  1.0000
  C   C9        1.0  0.87889  0.11701  0.11929  1.0000
  C   C10       1.0  0.62110  0.88299  0.61928  1.0000
  C   C11       1.0  0.12111  0.88299  0.88072  1.0000
  C   C12       1.0  0.37890  0.11701  0.38072  1.0000
  C   C13       1.0  0.98682  0.26251  0.09666  1.0000
  C   C14       1.0  0.51318  0.73749  0.59665  1.0000
  C   C15       1.0  0.01318  0.73749  0.90335  1.0000
  C   C16       1.0  0.48682  0.26251  0.40335  1.0000
  C   C17       1.0  0.03946  0.35934  0.20423  1.0000
  C   C18       1.0  0.46054  0.64066  0.70422  1.0000
  C   C19       1.0  0.96054  0.64066  0.79578  1.0000
  C   C20       1.0  0.53946  0.35934  0.29578  1.0000
  C   C21       1.0  0.04185  0.31468  0.96012  1.0000
  C   C22       1.0  0.45814  0.68532  0.46011  1.0000
  C   C23       1.0  0.95815  0.68532  0.03989  1.0000
  C   C24       1.0  0.54186  0.31468  0.53989  1.0000
  N   N1        1.0  0.99031  0.31741  0.32708  1.0000
  N   N2        1.0  0.50970  0.68260  0.82707  1.0000
  N   N3        1.0  0.00970  0.68259  0.67293  1.0000
  N   N4        1.0  0.49031  0.31741  0.17293  1.0000
  O   O1        1.0  0.93309  0.25681  0.86787  1.0000
  O   O2        1.0  0.56691  0.74319  0.36786  1.0000
  O   O3        1.0  0.06691  0.74319  0.13213  1.0000
  O   O4        1.0  0.43309  0.25681  0.63213  1.0000
  O   O5        1.0  0.18863  0.41123  0.94187  1.0000
  O   O6        1.0  0.31137  0.58876  0.44186  1.0000
  O   O7        1.0  0.81136  0.58877  0.05815  1.0000
  O   O8        1.0  0.68863  0.41123  0.55814  1.0000
  O   O9        1.0  0.06688  0.29114  0.62536  1.0000
  O   O10       1.0  0.43312  0.70885  0.12535  1.0000
  O   O11       1.0  0.93312  0.70885  0.37465  1.0000
  O   O12       1.0  0.56688  0.29115  0.87464  1.0000
