data_image0
_chemical_formula_structural       Cu12H24C12N24Cl12
_chemical_formula_sum              "Cu12 H24 C12 N24 Cl12"
_cell_length_a       3.66808
_cell_length_b       15.9123
_cell_length_c       17.292
_cell_angle_alpha    90.0002
_cell_angle_beta     89.9997
_cell_angle_gamma    90.0008

_space_group_name_H-M_alt    "P 1"
_space_group_IT_number       1

loop_
  _space_group_symop_operation_xyz
  'x, y, z'

loop_
  _atom_site_type_symbol
  _atom_site_label
  _atom_site_symmetry_multiplicity
  _atom_site_fract_x
  _atom_site_fract_y
  _atom_site_fract_z
  _atom_site_occupancy
  Cu  Cu1       1.0  0.09720  0.85216  0.80693  1.0000
  Cu  Cu2       1.0  0.90279  0.35216  0.19307  1.0000
  Cu  Cu3       1.0  0.40279  0.85216  0.30693  1.0000
  Cu  Cu4       1.0  0.59722  0.35216  0.69307  1.0000
  Cu  Cu5       1.0  0.77473  0.83833  0.99885  1.0000
  Cu  Cu6       1.0  0.22527  0.33833  0.00115  1.0000
  Cu  Cu7       1.0  0.72526  0.83832  0.49885  1.0000
  Cu  Cu8       1.0  0.27473  0.33832  0.50115  1.0000
  Cu  Cu9       1.0  0.56151  0.65043  0.89074  1.0000
  Cu  Cu10      1.0  0.43850  0.15043  0.10926  1.0000
  Cu  Cu11      1.0  0.93848  0.65043  0.39074  1.0000
  Cu  Cu12      1.0  0.06150  0.15043  0.60926  1.0000
  H   H1        1.0  0.40453  0.75806  0.71016  1.0000
  H   H2        1.0  0.59545  0.25805  0.28983  1.0000
  H   H3        1.0  0.09545  0.75806  0.21016  1.0000
  H   H4        1.0  0.90455  0.25806  0.78984  1.0000
  H   H5        1.0  0.59826  0.75393  0.61603  1.0000
  H   H6        1.0  0.40173  0.25393  0.38396  1.0000
  H   H7        1.0  0.90174  0.75394  0.11603  1.0000
  H   H8        1.0  0.09828  0.25392  0.88397  1.0000
  H   H9        1.0  0.83764  0.08919  0.73542  1.0000
  H   H10       1.0  0.16233  0.58918  0.26458  1.0000
  H   H11       1.0  0.66236  0.08919  0.23542  1.0000
  H   H12       1.0  0.33766  0.58919  0.76459  1.0000
  H   H13       1.0  0.84928  0.99871  0.79499  1.0000
  H   H14       1.0  0.15073  0.49870  0.20500  1.0000
  H   H15       1.0  0.65073  0.99871  0.29499  1.0000
  H   H16       1.0  0.34932  0.49871  0.70502  1.0000
  H   H17       1.0  0.58269  0.99102  0.46165  1.0000
  H   H18       1.0  0.41728  0.49102  0.53836  1.0000
  H   H19       1.0  0.91729  0.99102  0.96165  1.0000
  H   H20       1.0  0.08272  0.49102  0.03836  1.0000
  H   H21       1.0  0.37430  0.08461  0.49619  1.0000
  H   H22       1.0  0.62568  0.58461  0.50381  1.0000
  H   H23       1.0  0.12570  0.08461  0.99619  1.0000
  H   H24       1.0  0.87431  0.58461  0.00382  1.0000
  C   C1        1.0  0.11044  0.98841  0.69177  1.0000
  C   C2        1.0  0.88955  0.48841  0.30823  1.0000
  C   C3        1.0  0.38955  0.98842  0.19176  1.0000
  C   C4        1.0  0.61046  0.48841  0.80823  1.0000
  C   C5        1.0  0.37860  0.86634  0.64784  1.0000
  C   C6        1.0  0.62139  0.36634  0.35216  1.0000
  C   C7        1.0  0.12141  0.86634  0.14784  1.0000
  C   C8        1.0  0.87859  0.36634  0.85216  1.0000
  C   C9        1.0  0.36372  0.98452  0.56976  1.0000
  C   C10       1.0  0.63629  0.48453  0.43023  1.0000
  C   C11       1.0  0.13627  0.98452  0.06976  1.0000
  C   C12       1.0  0.86372  0.48452  0.93024  1.0000
  N   N1        1.0  0.18445  0.02929  0.62482  1.0000
  N   N2        1.0  0.81553  0.52928  0.37518  1.0000
  N   N3        1.0  0.31555  0.02929  0.12482  1.0000
  N   N4        1.0  0.68447  0.52929  0.87520  1.0000
  N   N5        1.0  0.47607  0.78683  0.65961  1.0000
  N   N6        1.0  0.52394  0.28683  0.34039  1.0000
  N   N7        1.0  0.02394  0.78683  0.15962  1.0000
  N   N8        1.0  0.97607  0.28683  0.84038  1.0000
  N   N9        1.0  0.20164  0.90723  0.70577  1.0000
  N   N10       1.0  0.79836  0.40722  0.29423  1.0000
  N   N11       1.0  0.29834  0.90723  0.20576  1.0000
  N   N12       1.0  0.70165  0.40723  0.79424  1.0000
  N   N13       1.0  0.46477  0.90264  0.57880  1.0000
  N   N14       1.0  0.53522  0.40264  0.42120  1.0000
  N   N15       1.0  0.03521  0.90265  0.07879  1.0000
  N   N16       1.0  0.96481  0.40264  0.92121  1.0000
  N   N17       1.0  0.94102  0.03113  0.74795  1.0000
  N   N18       1.0  0.05897  0.53113  0.25205  1.0000
  N   N19       1.0  0.55897  0.03112  0.24795  1.0000
  N   N20       1.0  0.44103  0.53112  0.75205  1.0000
  N   N21       1.0  0.44504  0.02300  0.50368  1.0000
  N   N22       1.0  0.55494  0.52300  0.49632  1.0000
  N   N23       1.0  0.05494  0.02300  0.00367  1.0000
  N   N24       1.0  0.94506  0.52300  0.99632  1.0000
  Cl  Cl1       1.0  0.08988  0.70845  0.81710  1.0000
  Cl  Cl2       1.0  0.91012  0.20845  0.18290  1.0000
  Cl  Cl3       1.0  0.41011  0.70845  0.31710  1.0000
  Cl  Cl4       1.0  0.58987  0.20845  0.68290  1.0000
  Cl  Cl5       1.0  0.62108  0.90055  0.88385  1.0000
  Cl  Cl6       1.0  0.37891  0.40054  0.11615  1.0000
  Cl  Cl7       1.0  0.87890  0.90054  0.38385  1.0000
  Cl  Cl8       1.0  0.12109  0.40055  0.61615  1.0000
  Cl  Cl9       1.0  0.53932  0.70906  0.01094  1.0000
  Cl  Cl10      1.0  0.46068  0.20905  0.98906  1.0000
  Cl  Cl11      1.0  0.96067  0.70905  0.51094  1.0000
  Cl  Cl12      1.0  0.03932  0.20906  0.48906  1.0000
