data_image0
_chemical_formula_structural       Na4H24C4N20O12
_chemical_formula_sum              "Na4 H24 C4 N20 O12"
_cell_length_a       8.05447
_cell_length_b       8.62697
_cell_length_c       8.60912
_cell_angle_alpha    89.9998
_cell_angle_beta     91.0609
_cell_angle_gamma    90

_space_group_name_H-M_alt    "P 1"
_space_group_IT_number       1

loop_
  _space_group_symop_operation_xyz
  'x, y, z'

loop_
  _atom_site_type_symbol
  _atom_site_label
  _atom_site_symmetry_multiplicity
  _atom_site_fract_x
  _atom_site_fract_y
  _atom_site_fract_z
  _atom_site_occupancy
  Na  Na1       1.0  0.81230  0.59879  0.06650  1.0000
  Na  Na2       1.0  0.68769  0.09879  0.43350  1.0000
  Na  Na3       1.0  0.18770  0.40121  0.93350  1.0000
  Na  Na4       1.0  0.31230  0.90121  0.56650  1.0000
  H   H1        1.0  0.55646  0.41122  0.89015  1.0000
  H   H2        1.0  0.94354  0.91122  0.60985  1.0000
  H   H3        1.0  0.44354  0.58878  0.10985  1.0000
  H   H4        1.0  0.05646  0.08878  0.39015  1.0000
  H   H5        1.0  0.68705  0.28899  0.94115  1.0000
  H   H6        1.0  0.81295  0.78899  0.55885  1.0000
  H   H7        1.0  0.31295  0.71101  0.05885  1.0000
  H   H8        1.0  0.18705  0.21101  0.44115  1.0000
  H   H9        1.0  0.63042  0.56471  0.34905  1.0000
  H   H10       1.0  0.86958  0.06471  0.15095  1.0000
  H   H11       1.0  0.36958  0.43529  0.65095  1.0000
  H   H12       1.0  0.13042  0.93529  0.84905  1.0000
  H   H13       1.0  0.56121  0.72891  0.28949  1.0000
  H   H14       1.0  0.93879  0.22891  0.21051  1.0000
  H   H15       1.0  0.43879  0.27109  0.71051  1.0000
  H   H16       1.0  0.06121  0.77109  0.78949  1.0000
  H   H17       1.0  0.94614  0.81174  0.34277  1.0000
  H   H18       1.0  0.55386  0.31174  0.15723  1.0000
  H   H19       1.0  0.05386  0.18826  0.65723  1.0000
  H   H20       1.0  0.44614  0.68826  0.84277  1.0000
  H   H21       1.0  0.08922  0.82005  0.20205  1.0000
  H   H22       1.0  0.41078  0.32005  0.29795  1.0000
  H   H23       1.0  0.91078  0.17995  0.79795  1.0000
  H   H24       1.0  0.58922  0.67995  0.70205  1.0000
  C   C1        1.0  0.09730  0.47841  0.28693  1.0000
  C   C2        1.0  0.40270  0.97841  0.21308  1.0000
  C   C3        1.0  0.90270  0.52158  0.71307  1.0000
  C   C4        1.0  0.59730  0.02159  0.78692  1.0000
  N   N1        1.0  0.09653  0.63259  0.33000  1.0000
  N   N2        1.0  0.40347  0.13259  0.17000  1.0000
  N   N3        1.0  0.90347  0.36741  0.67000  1.0000
  N   N4        1.0  0.59653  0.86741  0.83000  1.0000
  N   N5        1.0  0.20294  0.65559  0.45236  1.0000
  N   N6        1.0  0.29706  0.15559  0.04764  1.0000
  N   N7        1.0  0.79706  0.34441  0.54764  1.0000
  N   N8        1.0  0.70294  0.84441  0.95236  1.0000
  N   N9        1.0  0.26506  0.52090  0.48557  1.0000
  N   N10       1.0  0.23495  0.02090  0.01443  1.0000
  N   N11       1.0  0.73495  0.47909  0.51443  1.0000
  N   N12       1.0  0.76505  0.97910  0.98557  1.0000
  N   N13       1.0  0.20597  0.40923  0.38830  1.0000
  N   N14       1.0  0.29404  0.90923  0.11171  1.0000
  N   N15       1.0  0.79404  0.59076  0.61171  1.0000
  N   N16       1.0  0.70596  0.09077  0.88829  1.0000
  N   N17       1.0  0.00564  0.74914  0.25739  1.0000
  N   N18       1.0  0.49436  0.24914  0.24261  1.0000
  N   N19       1.0  0.99436  0.25086  0.74261  1.0000
  N   N20       1.0  0.50564  0.75086  0.75739  1.0000
  O   O1        1.0  0.01345  0.41979  0.17566  1.0000
  O   O2        1.0  0.48656  0.91979  0.32434  1.0000
  O   O3        1.0  0.98655  0.58022  0.82434  1.0000
  O   O4        1.0  0.51344  0.08022  0.67566  1.0000
  O   O5        1.0  0.64794  0.39540  0.96777  1.0000
  O   O6        1.0  0.85206  0.89540  0.53223  1.0000
  O   O7        1.0  0.35206  0.60460  0.03223  1.0000
  O   O8        1.0  0.14794  0.10460  0.46777  1.0000
  O   O9        1.0  0.59784  0.62473  0.25452  1.0000
  O   O10       1.0  0.90216  0.12473  0.24548  1.0000
  O   O11       1.0  0.40216  0.37527  0.74548  1.0000
  O   O12       1.0  0.09784  0.87527  0.75452  1.0000
