data_image0
_chemical_formula_structural       Sm2H22C28Br4N4O18
_chemical_formula_sum              "Sm2 H22 C28 Br4 N4 O18"
_cell_length_a       8.48691
_cell_length_b       10.0328
_cell_length_c       11.8088
_cell_angle_alpha    108.881
_cell_angle_beta     104.431
_cell_angle_gamma    99.5725

_space_group_name_H-M_alt    "P 1"
_space_group_IT_number       1

loop_
  _space_group_symop_operation_xyz
  'x, y, z'

loop_
  _atom_site_type_symbol
  _atom_site_label
  _atom_site_symmetry_multiplicity
  _atom_site_fract_x
  _atom_site_fract_y
  _atom_site_fract_z
  _atom_site_occupancy
  Sm  Sm1       1.0  0.01569  0.20734  0.51135  1.0000
  Sm  Sm2       1.0  0.98431  0.79266  0.48865  1.0000
  H   H1        1.0  0.08600  0.49176  0.74840  1.0000
  H   H2        1.0  0.91400  0.50824  0.25160  1.0000
  H   H3        1.0  0.09798  0.54161  0.63591  1.0000
  H   H4        1.0  0.90202  0.45839  0.36409  1.0000
  H   H5        1.0  0.21041  0.76795  0.83461  1.0000
  H   H6        1.0  0.78958  0.23204  0.16539  1.0000
  H   H7        1.0  0.20441  0.11105  0.17066  1.0000
  H   H8        1.0  0.79560  0.88895  0.82933  1.0000
  H   H9        1.0  0.03428  0.64983  0.09788  1.0000
  H   H10       1.0  0.96572  0.35018  0.90212  1.0000
  H   H11       1.0  0.43066  0.29603  0.50433  1.0000
  H   H12       1.0  0.56934  0.70397  0.49567  1.0000
  H   H13       1.0  0.15271  0.45930  0.26422  1.0000
  H   H14       1.0  0.84730  0.54070  0.73577  1.0000
  H   H15       1.0  0.62593  0.38178  0.22025  1.0000
  H   H16       1.0  0.37407  0.61822  0.77976  1.0000
  H   H17       1.0  0.55939  0.10187  0.61866  1.0000
  H   H18       1.0  0.44061  0.89813  0.38133  1.0000
  H   H19       1.0  0.46814  0.99472  0.69343  1.0000
  H   H20       1.0  0.53185  0.00528  0.30657  1.0000
  H   H21       1.0  0.55661  0.18973  0.77320  1.0000
  H   H22       1.0  0.44339  0.81026  0.22680  1.0000
  C   C1        1.0  0.18849  0.80656  0.92536  1.0000
  C   C2        1.0  0.81151  0.19343  0.07464  1.0000
  C   C3        1.0  0.21980  0.95311  0.99949  1.0000
  C   C4        1.0  0.78020  0.04689  0.00051  1.0000
  C   C5        1.0  0.18234  0.99668  0.11204  1.0000
  C   C6        1.0  0.81766  0.00332  0.88796  1.0000
  C   C7        1.0  0.11400  0.88740  0.14907  1.0000
  C   C8        1.0  0.88600  0.11260  0.85093  1.0000
  C   C9        1.0  0.08598  0.74073  0.07495  1.0000
  C   C10       1.0  0.91401  0.25927  0.92505  1.0000
  C   C11       1.0  0.07208  0.92674  0.27145  1.0000
  C   C12       1.0  0.92792  0.07326  0.72855  1.0000
  C   C13       1.0  0.42347  0.32794  0.42384  1.0000
  C   C14       1.0  0.57653  0.67207  0.57616  1.0000
  C   C15       1.0  0.26438  0.42093  0.28675  1.0000
  C   C16       1.0  0.73562  0.57907  0.71325  1.0000
  C   C17       1.0  0.38573  0.42243  0.22709  1.0000
  C   C18       1.0  0.61428  0.57757  0.77292  1.0000
  C   C19       1.0  0.52891  0.37632  0.26482  1.0000
  C   C20       1.0  0.47110  0.62368  0.73518  1.0000
  C   C21       1.0  0.54677  0.32911  0.36536  1.0000
  C   C22       1.0  0.45324  0.67089  0.63465  1.0000
  C   C23       1.0  0.70136  0.28455  0.41762  1.0000
  C   C24       1.0  0.29864  0.71545  0.58238  1.0000
  C   C25       1.0  0.31913  0.12722  0.62848  1.0000
  C   C26       1.0  0.68087  0.87278  0.37152  1.0000
  C   C27       1.0  0.48481  0.09960  0.68243  1.0000
  C   C28       1.0  0.51519  0.90040  0.31757  1.0000
  Br  Br1       1.0  0.31694  0.09224  0.94248  1.0000
  Br  Br2       1.0  0.68306  0.90775  0.05752  1.0000
  Br  Br3       1.0  0.34755  0.48552  0.09074  1.0000
  Br  Br4       1.0  0.65245  0.51448  0.90926  1.0000
  N   N1        1.0  0.12369  0.70207  0.96496  1.0000
  N   N2        1.0  0.87631  0.29793  0.03504  1.0000
  N   N3        1.0  0.28484  0.37346  0.38429  1.0000
  N   N4        1.0  0.71516  0.62655  0.61571  1.0000
  O   O1        1.0  0.09932  0.56306  0.89828  1.0000
  O   O2        1.0  0.90067  0.43694  0.10172  1.0000
  O   O3        1.0  0.02500  0.82103  0.30254  1.0000
  O   O4        1.0  0.97500  0.17897  0.69746  1.0000
  O   O5        1.0  0.08919  0.06160  0.33109  1.0000
  O   O6        1.0  0.91081  0.93841  0.66891  1.0000
  O   O7        1.0  0.17189  0.37804  0.44200  1.0000
  O   O8        1.0  0.82811  0.62196  0.55800  1.0000
  O   O9        1.0  0.71731  0.25229  0.51359  1.0000
  O   O10       1.0  0.28270  0.74772  0.48642  1.0000
  O   O11       1.0  0.81374  0.28111  0.36121  1.0000
  O   O12       1.0  0.18627  0.71889  0.63880  1.0000
  O   O13       1.0  0.18193  0.02304  0.57582  1.0000
  O   O14       1.0  0.81807  0.97696  0.42418  1.0000
  O   O15       1.0  0.31583  0.25473  0.63258  1.0000
  O   O16       1.0  0.68417  0.74527  0.36742  1.0000
  O   O17       1.0  0.07044  0.45392  0.65587  1.0000
  O   O18       1.0  0.92956  0.54608  0.34413  1.0000
