data_image0
_chemical_formula_structural       Pr2H22C28Br4N4O18
_chemical_formula_sum              "Pr2 H22 C28 Br4 N4 O18"
_cell_length_a       8.53002
_cell_length_b       10.1479
_cell_length_c       11.8969
_cell_angle_alpha    109.136
_cell_angle_beta     104.505
_cell_angle_gamma    99.9168

_space_group_name_H-M_alt    "P 1"
_space_group_IT_number       1

loop_
  _space_group_symop_operation_xyz
  'x, y, z'

loop_
  _atom_site_type_symbol
  _atom_site_label
  _atom_site_symmetry_multiplicity
  _atom_site_fract_x
  _atom_site_fract_y
  _atom_site_fract_z
  _atom_site_occupancy
  Pr  Pr1       1.0  0.51430  0.20837  0.01113  1.0000
  Pr  Pr2       1.0  0.48570  0.79163  0.98887  1.0000
  H   H1        1.0  0.58943  0.49655  0.25290  1.0000
  H   H2        1.0  0.41057  0.50345  0.74710  1.0000
  H   H3        1.0  0.60300  0.54576  0.14143  1.0000
  H   H4        1.0  0.39700  0.45424  0.85857  1.0000
  H   H5        1.0  0.46100  0.34756  0.40092  1.0000
  H   H6        1.0  0.53900  0.65244  0.59908  1.0000
  H   H7        1.0  0.28653  0.23287  0.66336  1.0000
  H   H8        1.0  0.71348  0.76713  0.33665  1.0000
  H   H9        1.0  0.29749  0.89082  0.33189  1.0000
  H   H10       1.0  0.70251  0.10918  0.66811  1.0000
  H   H11       1.0  0.93017  0.29918  0.00165  1.0000
  H   H12       1.0  0.06983  0.70082  0.99835  1.0000
  H   H13       1.0  0.65276  0.46005  0.76453  1.0000
  H   H14       1.0  0.34724  0.53995  0.23547  1.0000
  H   H15       1.0  0.12166  0.38209  0.71823  1.0000
  H   H16       1.0  0.87834  0.61791  0.28177  1.0000
  H   H17       1.0  0.96071  0.83486  0.71861  1.0000
  H   H18       1.0  0.03929  0.16513  0.28139  1.0000
  H   H19       1.0  0.02319  0.01161  0.84234  1.0000
  H   H20       1.0  0.97681  0.98839  0.15766  1.0000
  H   H21       1.0  0.91860  0.85354  0.86009  1.0000
  H   H22       1.0  0.08140  0.14646  0.13991  1.0000
  C   C1        1.0  0.42660  0.07298  0.23054  1.0000
  C   C2        1.0  0.57340  0.92702  0.76946  1.0000
  C   C3        1.0  0.38473  0.11243  0.35198  1.0000
  C   C4        1.0  0.61527  0.88758  0.64802  1.0000
  C   C5        1.0  0.41066  0.25797  0.42452  1.0000
  C   C6        1.0  0.58934  0.74203  0.57548  1.0000
  C   C7        1.0  0.30930  0.19401  0.57357  1.0000
  C   C8        1.0  0.69070  0.80599  0.42643  1.0000
  C   C9        1.0  0.28019  0.04834  0.50094  1.0000
  C   C10       1.0  0.71981  0.95166  0.49906  1.0000
  C   C11       1.0  0.31810  0.00445  0.38943  1.0000
  C   C12       1.0  0.68190  0.99555  0.61057  1.0000
  C   C13       1.0  0.19752  0.28634  0.91397  1.0000
  C   C14       1.0  0.80248  0.71366  0.08603  1.0000
  C   C15       1.0  0.04412  0.33093  0.86290  1.0000
  C   C16       1.0  0.95587  0.66907  0.13710  1.0000
  C   C17       1.0  0.92223  0.33029  0.92160  1.0000
  C   C18       1.0  0.07777  0.66971  0.07840  1.0000
  C   C19       1.0  0.76378  0.42214  0.78621  1.0000
  C   C20       1.0  0.23622  0.57786  0.21379  1.0000
  C   C21       1.0  0.88337  0.42263  0.72592  1.0000
  C   C22       1.0  0.11663  0.57737  0.27408  1.0000
  C   C23       1.0  0.02565  0.37703  0.76292  1.0000
  C   C24       1.0  0.97435  0.62297  0.23708  1.0000
  C   C25       1.0  0.17531  0.86881  0.87286  1.0000
  C   C26       1.0  0.82469  0.13119  0.12714  1.0000
  C   C27       1.0  0.00996  0.89629  0.82109  1.0000
  C   C28       1.0  0.99003  0.10371  0.17891  1.0000
  Br  Br1       1.0  0.18602  0.91034  0.55834  1.0000
  Br  Br2       1.0  0.81398  0.08966  0.44166  1.0000
  Br  Br3       1.0  0.84409  0.48419  0.59033  1.0000
  Br  Br4       1.0  0.15591  0.51581  0.40967  1.0000
  N   N1        1.0  0.37274  0.29709  0.53357  1.0000
  N   N2        1.0  0.62727  0.70291  0.46643  1.0000
  N   N3        1.0  0.78474  0.37569  0.88310  1.0000
  N   N4        1.0  0.21526  0.62431  0.11691  1.0000
  O   O1        1.0  0.47160  0.17738  0.19897  1.0000
  O   O2        1.0  0.52840  0.82262  0.80103  1.0000
  O   O3        1.0  0.41136  0.93949  0.17187  1.0000
  O   O4        1.0  0.58864  0.06051  0.82813  1.0000
  O   O5        1.0  0.39567  0.43515  0.59880  1.0000
  O   O6        1.0  0.60433  0.56486  0.40121  1.0000
  O   O7        1.0  0.67341  0.38108  0.94141  1.0000
  O   O8        1.0  0.32659  0.61892  0.05859  1.0000
  O   O9        1.0  0.21323  0.25421  0.00916  1.0000
  O   O10       1.0  0.78677  0.74579  0.99084  1.0000
  O   O11       1.0  0.30846  0.28239  0.85743  1.0000
  O   O12       1.0  0.69153  0.71761  0.14257  1.0000
  O   O13       1.0  0.57303  0.45869  0.16051  1.0000
  O   O14       1.0  0.42697  0.54131  0.83949  1.0000
  O   O15       1.0  0.31335  0.97200  0.92250  1.0000
  O   O16       1.0  0.68665  0.02800  0.07750  1.0000
  O   O17       1.0  0.17762  0.74226  0.86780  1.0000
  O   O18       1.0  0.82238  0.25774  0.13220  1.0000
