data_image0
_chemical_formula_structural       Ag4H24C12N16Cl4
_chemical_formula_sum              "Ag4 H24 C12 N16 Cl4"
_cell_length_a       6.34968
_cell_length_b       6.9483
_cell_length_c       15.0562
_cell_angle_alpha    89.9999
_cell_angle_beta     90.0005
_cell_angle_gamma    89.9988

_space_group_name_H-M_alt    "P 1"
_space_group_IT_number       1

loop_
  _space_group_symop_operation_xyz
  'x, y, z'

loop_
  _atom_site_type_symbol
  _atom_site_label
  _atom_site_symmetry_multiplicity
  _atom_site_fract_x
  _atom_site_fract_y
  _atom_site_fract_z
  _atom_site_occupancy
  Ag  Ag1       1.0  0.75001  0.00638  0.34139  1.0000
  Ag  Ag2       1.0  0.24998  0.49362  0.84139  1.0000
  Ag  Ag3       1.0  0.75001  0.50637  0.15861  1.0000
  Ag  Ag4       1.0  0.25000  0.99362  0.65861  1.0000
  H   H1        1.0  0.75000  0.63956  0.45661  1.0000
  H   H2        1.0  0.25000  0.86045  0.95661  1.0000
  H   H3        1.0  0.75001  0.13956  0.04339  1.0000
  H   H4        1.0  0.25000  0.36044  0.54339  1.0000
  H   H5        1.0  0.89210  0.60782  0.55862  1.0000
  H   H6        1.0  0.10791  0.89219  0.05862  1.0000
  H   H7        1.0  0.60790  0.10782  0.94139  1.0000
  H   H8        1.0  0.39210  0.39217  0.44138  1.0000
  H   H9        1.0  0.10790  0.39217  0.44138  1.0000
  H   H10       1.0  0.89211  0.10783  0.94139  1.0000
  H   H11       1.0  0.39208  0.89218  0.05861  1.0000
  H   H12       1.0  0.60790  0.60783  0.55861  1.0000
  H   H13       1.0  0.75003  0.17633  0.74749  1.0000
  H   H14       1.0  0.25001  0.32369  0.24749  1.0000
  H   H15       1.0  0.74995  0.67632  0.75251  1.0000
  H   H16       1.0  0.25002  0.82368  0.25251  1.0000
  H   H17       1.0  0.89319  0.35011  0.68384  1.0000
  H   H18       1.0  0.10683  0.14988  0.18385  1.0000
  H   H19       1.0  0.60679  0.85011  0.81615  1.0000
  H   H20       1.0  0.39320  0.64989  0.31615  1.0000
  H   H21       1.0  0.10683  0.64989  0.31615  1.0000
  H   H22       1.0  0.89315  0.85011  0.81614  1.0000
  H   H23       1.0  0.39319  0.14989  0.18385  1.0000
  H   H24       1.0  0.60683  0.35012  0.68384  1.0000
  C   C1        1.0  0.75000  0.02126  0.47903  1.0000
  C   C2        1.0  0.24999  0.47871  0.97904  1.0000
  C   C3        1.0  0.75002  0.52124  0.02096  1.0000
  C   C4        1.0  0.24999  0.97878  0.52096  1.0000
  C   C5        1.0  0.75000  0.66837  0.52811  1.0000
  C   C6        1.0  0.25000  0.83163  0.02810  1.0000
  C   C7        1.0  0.75000  0.16837  0.97189  1.0000
  C   C8        1.0  0.25000  0.33162  0.47189  1.0000
  C   C9        1.0  0.75002  0.26158  0.68674  1.0000
  C   C10       1.0  0.25000  0.23841  0.18675  1.0000
  C   C11       1.0  0.74997  0.76157  0.81326  1.0000
  C   C12       1.0  0.25001  0.73843  0.31326  1.0000
  N   N1        1.0  0.75000  0.87583  0.54115  1.0000
  N   N2        1.0  0.25000  0.62416  0.04115  1.0000
  N   N3        1.0  0.75000  0.37582  0.95885  1.0000
  N   N4        1.0  0.25000  0.12419  0.45885  1.0000
  N   N5        1.0  0.75000  0.94343  0.62394  1.0000
  N   N6        1.0  0.25001  0.55658  0.12394  1.0000
  N   N7        1.0  0.74999  0.44342  0.87606  1.0000
  N   N8        1.0  0.25001  0.05658  0.37606  1.0000
  N   N9        1.0  0.75001  0.12954  0.61201  1.0000
  N   N10       1.0  0.25000  0.37047  0.11202  1.0000
  N   N11       1.0  0.74998  0.62952  0.88800  1.0000
  N   N12       1.0  0.25001  0.87048  0.38800  1.0000
  N   N13       1.0  0.75001  0.18571  0.52690  1.0000
  N   N14       1.0  0.24999  0.31427  0.02691  1.0000
  N   N15       1.0  0.74999  0.68569  0.97310  1.0000
  N   N16       1.0  0.25001  0.81433  0.47310  1.0000
  Cl  Cl1       1.0  0.75001  0.94194  0.18732  1.0000
  Cl  Cl2       1.0  0.25000  0.55805  0.68732  1.0000
  Cl  Cl3       1.0  0.75001  0.44194  0.31268  1.0000
  Cl  Cl4       1.0  0.24997  0.05805  0.81268  1.0000
