data_image0
_chemical_formula_structural       Ag4H16C32N16O8F12
_chemical_formula_sum              "Ag4 H16 C32 N16 O8 F12"
_cell_length_a       7.36362
_cell_length_b       11.2516
_cell_length_c       12.528
_cell_angle_alpha    90.0003
_cell_angle_beta     90
_cell_angle_gamma    90

_space_group_name_H-M_alt    "P 1"
_space_group_IT_number       1

loop_
  _space_group_symop_operation_xyz
  'x, y, z'

loop_
  _atom_site_type_symbol
  _atom_site_label
  _atom_site_symmetry_multiplicity
  _atom_site_fract_x
  _atom_site_fract_y
  _atom_site_fract_z
  _atom_site_occupancy
  Ag  Ag1       1.0  0.95191  0.17950  0.75000  1.0000
  Ag  Ag2       1.0  0.54809  0.67950  0.25000  1.0000
  Ag  Ag3       1.0  0.04809  0.82050  0.25000  1.0000
  Ag  Ag4       1.0  0.45191  0.32050  0.75000  1.0000
  H   H1        1.0  0.85359  0.97990  0.57810  1.0000
  H   H2        1.0  0.64641  0.47990  0.42190  1.0000
  H   H3        1.0  0.14641  0.02010  0.07810  1.0000
  H   H4        1.0  0.35359  0.52010  0.92190  1.0000
  H   H5        1.0  0.14641  0.02010  0.42190  1.0000
  H   H6        1.0  0.35359  0.52010  0.57810  1.0000
  H   H7        1.0  0.85359  0.97990  0.92190  1.0000
  H   H8        1.0  0.64641  0.47990  0.07810  1.0000
  H   H9        1.0  0.27185  0.18565  0.55693  1.0000
  H   H10       1.0  0.22815  0.68565  0.44308  1.0000
  H   H11       1.0  0.72815  0.81435  0.05692  1.0000
  H   H12       1.0  0.77185  0.31435  0.94307  1.0000
  H   H13       1.0  0.72815  0.81435  0.44307  1.0000
  H   H14       1.0  0.77185  0.31435  0.55692  1.0000
  H   H15       1.0  0.27185  0.18565  0.94308  1.0000
  H   H16       1.0  0.22815  0.68565  0.05693  1.0000
  C   C1        1.0  0.71959  0.02027  0.56888  1.0000
  C   C2        1.0  0.78041  0.52027  0.43112  1.0000
  C   C3        1.0  0.28041  0.97973  0.06888  1.0000
  C   C4        1.0  0.21959  0.47973  0.93113  1.0000
  C   C5        1.0  0.28041  0.97973  0.43112  1.0000
  C   C6        1.0  0.21959  0.47973  0.56888  1.0000
  C   C7        1.0  0.71959  0.02027  0.93112  1.0000
  C   C8        1.0  0.78041  0.52026  0.06888  1.0000
  C   C9        1.0  0.58312  0.97004  0.50328  1.0000
  C   C10       1.0  0.91688  0.47004  0.49672  1.0000
  C   C11       1.0  0.41689  0.02996  0.00328  1.0000
  C   C12       1.0  0.08312  0.52996  0.99672  1.0000
  C   C13       1.0  0.41688  0.02996  0.49672  1.0000
  C   C14       1.0  0.08311  0.52996  0.50328  1.0000
  C   C15       1.0  0.58312  0.97004  0.99672  1.0000
  C   C16       1.0  0.91688  0.47004  0.00328  1.0000
  C   C17       1.0  0.39806  0.13530  0.55700  1.0000
  C   C18       1.0  0.10194  0.63530  0.44300  1.0000
  C   C19       1.0  0.60194  0.86470  0.05700  1.0000
  C   C20       1.0  0.89806  0.36470  0.94300  1.0000
  C   C21       1.0  0.60193  0.86470  0.44300  1.0000
  C   C22       1.0  0.89806  0.36470  0.55700  1.0000
  C   C23       1.0  0.39806  0.13530  0.94300  1.0000
  C   C24       1.0  0.10194  0.63530  0.05700  1.0000
  C   C25       1.0  0.15322  0.95380  0.75001  1.0000
  C   C26       1.0  0.34678  0.45380  0.24999  1.0000
  C   C27       1.0  0.84678  0.04620  0.25000  1.0000
  C   C28       1.0  0.65322  0.54620  0.75000  1.0000
  C   C29       1.0  0.28816  0.84677  0.75000  1.0000
  C   C30       1.0  0.21184  0.34677  0.25000  1.0000
  C   C31       1.0  0.71184  0.15323  0.25000  1.0000
  C   C32       1.0  0.78817  0.65323  0.75000  1.0000
  N   N1        1.0  0.69382  0.11961  0.62266  1.0000
  N   N2        1.0  0.80618  0.61961  0.37734  1.0000
  N   N3        1.0  0.30618  0.88039  0.12266  1.0000
  N   N4        1.0  0.19382  0.38039  0.87734  1.0000
  N   N5        1.0  0.30618  0.88039  0.37734  1.0000
  N   N6        1.0  0.19382  0.38039  0.62266  1.0000
  N   N7        1.0  0.69382  0.11961  0.87734  1.0000
  N   N8        1.0  0.80618  0.61961  0.12266  1.0000
  N   N9        1.0  0.53061  0.17776  0.61689  1.0000
  N   N10       1.0  0.96939  0.67776  0.38311  1.0000
  N   N11       1.0  0.46939  0.82224  0.11689  1.0000
  N   N12       1.0  0.03061  0.32224  0.88311  1.0000
  N   N13       1.0  0.46939  0.82224  0.38311  1.0000
  N   N14       1.0  0.03061  0.32224  0.61689  1.0000
  N   N15       1.0  0.53061  0.17776  0.88311  1.0000
  N   N16       1.0  0.96939  0.67776  0.11689  1.0000
  O   O1        1.0  0.11058  0.99326  0.65940  1.0000
  O   O2        1.0  0.38942  0.49326  0.34059  1.0000
  O   O3        1.0  0.88941  0.00674  0.15940  1.0000
  O   O4        1.0  0.61058  0.50674  0.84059  1.0000
  O   O5        1.0  0.88942  0.00674  0.34059  1.0000
  O   O6        1.0  0.61059  0.50674  0.65940  1.0000
  O   O7        1.0  0.11059  0.99325  0.84059  1.0000
  O   O8        1.0  0.38942  0.49325  0.15941  1.0000
  F   F1        1.0  0.46298  0.89052  0.75000  1.0000
  F   F2        1.0  0.03702  0.39052  0.25000  1.0000
  F   F3        1.0  0.53702  0.10948  0.25000  1.0000
  F   F4        1.0  0.96298  0.60948  0.75000  1.0000
  F   F5        1.0  0.27291  0.77538  0.66247  1.0000
  F   F6        1.0  0.22709  0.27538  0.33753  1.0000
  F   F7        1.0  0.72709  0.22462  0.16247  1.0000
  F   F8        1.0  0.77291  0.72462  0.83753  1.0000
  F   F9        1.0  0.72709  0.22462  0.33753  1.0000
  F   F10       1.0  0.77291  0.72462  0.66247  1.0000
  F   F11       1.0  0.27291  0.77538  0.83753  1.0000
  F   F12       1.0  0.22709  0.27538  0.16247  1.0000
