data_image0
_chemical_formula_structural       Na2H20C10N6O16
_chemical_formula_sum              "Na2 H20 C10 N6 O16"
_cell_length_a       7.69969
_cell_length_b       7.7846
_cell_length_c       10.1273
_cell_angle_alpha    116.253
_cell_angle_beta     110.102
_cell_angle_gamma    96.9587

_space_group_name_H-M_alt    "P 1"
_space_group_IT_number       1

loop_
  _space_group_symop_operation_xyz
  'x, y, z'

loop_
  _atom_site_type_symbol
  _atom_site_label
  _atom_site_symmetry_multiplicity
  _atom_site_fract_x
  _atom_site_fract_y
  _atom_site_fract_z
  _atom_site_occupancy
  Na  Na1       1.0  0.93973  0.18081  0.38179  1.0000
  Na  Na2       1.0  0.06026  0.81920  0.61821  1.0000
  H   H1        1.0  0.51165  0.16190  0.79671  1.0000
  H   H2        1.0  0.78893  0.62858  0.93505  1.0000
  H   H3        1.0  0.48834  0.83808  0.20329  1.0000
  H   H4        1.0  0.21107  0.37140  0.06493  1.0000
  H   H5        1.0  0.34102  0.05798  0.46335  1.0000
  H   H6        1.0  0.65443  0.41495  0.53210  1.0000
  H   H7        1.0  0.65898  0.94202  0.53665  1.0000
  H   H8        1.0  0.34557  0.58505  0.46791  1.0000
  H   H9        1.0  0.40430  0.31923  0.61092  1.0000
  H   H10       1.0  0.69777  0.22500  0.57955  1.0000
  H   H11       1.0  0.59570  0.68077  0.38909  1.0000
  H   H12       1.0  0.30223  0.77500  0.42045  1.0000
  H   H13       1.0  0.19266  0.95381  0.16919  1.0000
  H   H14       1.0  0.50365  0.32499  0.25513  1.0000
  H   H15       1.0  0.80734  0.04620  0.83081  1.0000
  H   H16       1.0  0.49636  0.67501  0.74487  1.0000
  H   H17       1.0  0.14110  0.14528  0.12587  1.0000
  H   H18       1.0  0.44073  0.06768  0.09629  1.0000
  H   H19       1.0  0.85890  0.85473  0.87414  1.0000
  H   H20       1.0  0.55928  0.93233  0.90371  1.0000
  C   C1        1.0  0.82200  0.51542  0.11854  1.0000
  C   C2        1.0  0.17797  0.48458  0.88146  1.0000
  C   C3        1.0  0.39541  0.21355  0.49097  1.0000
  C   C4        1.0  0.59443  0.25564  0.49394  1.0000
  C   C5        1.0  0.60460  0.78646  0.50904  1.0000
  C   C6        1.0  0.40558  0.74436  0.50607  1.0000
  C   C7        1.0  0.24696  0.11550  0.21098  1.0000
  C   C8        1.0  0.44677  0.16502  0.21662  1.0000
  C   C9        1.0  0.75305  0.88451  0.78903  1.0000
  C   C10       1.0  0.55323  0.83499  0.78338  1.0000
  N   N1        1.0  0.86916  0.72246  0.19893  1.0000
  N   N2        1.0  0.85248  0.41571  0.20607  1.0000
  N   N3        1.0  0.13083  0.27753  0.80106  1.0000
  N   N4        1.0  0.14751  0.58431  0.79393  1.0000
  N   N5        1.0  0.75085  0.38985  0.94727  1.0000
  N   N6        1.0  0.24919  0.61016  0.05274  1.0000
  O   O1        1.0  0.81155  0.80107  0.10994  1.0000
  O   O2        1.0  0.82764  0.22888  0.12796  1.0000
  O   O3        1.0  0.18845  0.19892  0.89006  1.0000
  O   O4        1.0  0.17240  0.77114  0.87205  1.0000
  O   O5        1.0  0.97444  0.84017  0.35268  1.0000
  O   O6        1.0  0.89453  0.50537  0.35734  1.0000
  O   O7        1.0  0.02554  0.15982  0.64730  1.0000
  O   O8        1.0  0.10542  0.49465  0.64265  1.0000
  O   O9        1.0  0.53981  0.30716  0.87488  1.0000
  O   O10       1.0  0.80002  0.49033  0.87326  1.0000
  O   O11       1.0  0.46020  0.69283  0.12513  1.0000
  O   O12       1.0  0.19997  0.50965  0.12673  1.0000
  O   O13       1.0  0.25392  0.23909  0.37018  1.0000
  O   O14       1.0  0.58314  0.12683  0.33260  1.0000
  O   O15       1.0  0.74609  0.76092  0.62984  1.0000
  O   O16       1.0  0.41686  0.87317  0.66740  1.0000
