data_image0
_chemical_formula_structural       Zn3H28C30N2O14
_chemical_formula_sum              "Zn3 H28 C30 N2 O14"
_cell_length_a       8.08259
_cell_length_b       9.87603
_cell_length_c       11.4616
_cell_angle_alpha    106.809
_cell_angle_beta     90.6322
_cell_angle_gamma    113.917

_space_group_name_H-M_alt    "P 1"
_space_group_IT_number       1

loop_
  _space_group_symop_operation_xyz
  'x, y, z'

loop_
  _atom_site_type_symbol
  _atom_site_label
  _atom_site_symmetry_multiplicity
  _atom_site_fract_x
  _atom_site_fract_y
  _atom_site_fract_z
  _atom_site_occupancy
  Zn  Zn1       1.0  0.50000  0.50000  1.00000  1.0000
  Zn  Zn2       1.0  0.13754  0.58987  0.12565  1.0000
  Zn  Zn3       1.0  0.86246  0.41013  0.87435  1.0000
  H   H1        1.0  0.65325  0.43319  0.31920  1.0000
  H   H2        1.0  0.34675  0.56681  0.68080  1.0000
  H   H3        1.0  0.25205  0.58279  0.47717  1.0000
  H   H4        1.0  0.74795  0.41720  0.52283  1.0000
  H   H5        1.0  0.30549  0.10162  0.43163  1.0000
  H   H6        1.0  0.69451  0.89839  0.56837  1.0000
  H   H7        1.0  0.77406  0.72707  0.39274  1.0000
  H   H8        1.0  0.22594  0.27293  0.60726  1.0000
  H   H9        1.0  0.63203  0.81078  0.93262  1.0000
  H   H10       1.0  0.36796  0.18922  0.06738  1.0000
  H   H11       1.0  0.59920  0.96415  0.79940  1.0000
  H   H12       1.0  0.40080  0.03585  0.20060  1.0000
  H   H13       1.0  0.02303  0.96012  0.85514  1.0000
  H   H14       1.0  0.97697  0.03988  0.14486  1.0000
  H   H15       1.0  0.89097  0.77455  0.87360  1.0000
  H   H16       1.0  0.10903  0.22545  0.12640  1.0000
  H   H17       1.0  0.94777  0.78621  0.72721  1.0000
  H   H18       1.0  0.05223  0.21379  0.27278  1.0000
  H   H19       1.0  0.45008  0.04156  0.70511  1.0000
  H   H20       1.0  0.54992  0.95844  0.29489  1.0000
  H   H21       1.0  0.28109  0.08609  0.78537  1.0000
  H   H22       1.0  0.71892  0.91391  0.21463  1.0000
  H   H23       1.0  0.21186  0.91650  0.65147  1.0000
  H   H24       1.0  0.78814  0.08350  0.34853  1.0000
  H   H25       1.0  0.14026  0.30865  0.97141  1.0000
  H   H26       1.0  0.85974  0.69135  0.02859  1.0000
  H   H27       1.0  0.20570  0.32102  0.84867  1.0000
  H   H28       1.0  0.79430  0.67898  0.15133  1.0000
  C   C1        1.0  0.38924  0.51747  0.26515  1.0000
  C   C2        1.0  0.61076  0.48253  0.73485  1.0000
  C   C3        1.0  0.44611  0.50750  0.38644  1.0000
  C   C4        1.0  0.55389  0.49249  0.61356  1.0000
  C   C5        1.0  0.58588  0.46055  0.39862  1.0000
  C   C6        1.0  0.41413  0.53945  0.60138  1.0000
  C   C7        1.0  0.36061  0.54691  0.48846  1.0000
  C   C8        1.0  0.63939  0.45309  0.51154  1.0000
  C   C9        1.0  0.08932  0.80040  0.29691  1.0000
  C   C10       1.0  0.91069  0.19960  0.70309  1.0000
  C   C11       1.0  0.04357  0.90394  0.40160  1.0000
  C   C12       1.0  0.95643  0.09606  0.59840  1.0000
  C   C13       1.0  0.17196  0.05807  0.46183  1.0000
  C   C14       1.0  0.82804  0.94193  0.53817  1.0000
  C   C15       1.0  0.87179  0.84684  0.44034  1.0000
  C   C16       1.0  0.12821  0.15317  0.55966  1.0000
  C   C17       1.0  0.17707  0.72982  0.92845  1.0000
  C   C18       1.0  0.82293  0.27018  0.07155  1.0000
  C   C19       1.0  0.34744  0.72473  0.95723  1.0000
  C   C20       1.0  0.65256  0.27527  0.04276  1.0000
  C   C21       1.0  0.50109  0.81120  0.91099  1.0000
  C   C22       1.0  0.49891  0.18880  0.08901  1.0000
  C   C23       1.0  0.48510  0.89524  0.83809  1.0000
  C   C24       1.0  0.51490  0.10475  0.16191  1.0000
  C   C25       1.0  0.16849  0.81993  0.85641  1.0000
  C   C26       1.0  0.83151  0.18007  0.14359  1.0000
  C   C27       1.0  0.99870  0.83642  0.82659  1.0000
  C   C28       1.0  0.00130  0.16358  0.17341  1.0000
  C   C29       1.0  0.31544  0.99129  0.73307  1.0000
  C   C30       1.0  0.68456  0.00871  0.26693  1.0000
  N   N1        1.0  0.32336  0.89879  0.81130  1.0000
  N   N2        1.0  0.67664  0.10121  0.18870  1.0000
  O   O1        1.0  0.48663  0.50013  0.18068  1.0000
  O   O2        1.0  0.51336  0.49987  0.81932  1.0000
  O   O3        1.0  0.24639  0.54104  0.25777  1.0000
  O   O4        1.0  0.75361  0.45896  0.74223  1.0000
  O   O5        1.0  0.24509  0.84988  0.26293  1.0000
  O   O6        1.0  0.75491  0.15013  0.73708  1.0000
  O   O7        1.0  0.96575  0.65993  0.24227  1.0000
  O   O8        1.0  0.03425  0.34007  0.75773  1.0000
  O   O9        1.0  0.35246  0.64126  0.02677  1.0000
  O   O10       1.0  0.64754  0.35874  0.97323  1.0000
  O   O11       1.0  0.03244  0.64713  0.97477  1.0000
  O   O12       1.0  0.96756  0.35287  0.02523  1.0000
  O   O13       1.0  0.24075  0.30126  0.92331  1.0000
  O   O14       1.0  0.75925  0.69874  0.07669  1.0000
