data_image0
_chemical_formula_structural       H24Pb2C44N8O8
_chemical_formula_sum              "H24 Pb2 C44 N8 O8"
_cell_length_a       6.73436
_cell_length_b       8.21031
_cell_length_c       17.7537
_cell_angle_alpha    94.7238
_cell_angle_beta     91.5415
_cell_angle_gamma    103.877

_space_group_name_H-M_alt    "P 1"
_space_group_IT_number       1

loop_
  _space_group_symop_operation_xyz
  'x, y, z'

loop_
  _atom_site_type_symbol
  _atom_site_label
  _atom_site_symmetry_multiplicity
  _atom_site_fract_x
  _atom_site_fract_y
  _atom_site_fract_z
  _atom_site_occupancy
  H   H1        1.0  0.68649  0.69651  0.35605  1.0000
  H   H2        1.0  0.31358  0.30343  0.64394  1.0000
  H   H3        1.0  0.81548  0.87972  0.25423  1.0000
  H   H4        1.0  0.18447  0.12041  0.74583  1.0000
  H   H5        1.0  0.57339  0.87925  0.14136  1.0000
  H   H6        1.0  0.42659  0.12090  0.85869  1.0000
  H   H7        1.0  0.60329  0.39612  0.14522  1.0000
  H   H8        1.0  0.39672  0.60401  0.85480  1.0000
  H   H9        1.0  0.51336  0.21966  0.25738  1.0000
  H   H10       1.0  0.48665  0.78035  0.74261  1.0000
  H   H11       1.0  0.78979  0.22622  0.35411  1.0000
  H   H12       1.0  0.21021  0.77370  0.64586  1.0000
  H   H13       1.0  0.59398  0.62500  0.95552  1.0000
  H   H14       1.0  0.40596  0.37512  0.04452  1.0000
  H   H15       1.0  0.32044  0.95978  0.94767  1.0000
  H   H16       1.0  0.67952  0.04028  0.05235  1.0000
  H   H17       1.0  0.06157  0.96701  0.84426  1.0000
  H   H18       1.0  0.93840  0.03300  0.15575  1.0000
  H   H19       1.0  0.70368  0.80313  0.84839  1.0000
  H   H20       1.0  0.29632  0.19681  0.15160  1.0000
  H   H21       1.0  0.04587  0.99428  0.58501  1.0000
  H   H22       1.0  0.95421  0.00566  0.41498  1.0000
  H   H23       1.0  0.48793  0.04493  0.58543  1.0000
  H   H24       1.0  0.51213  0.95504  0.41452  1.0000
  Pb  Pb1       1.0  0.23975  0.48352  0.42954  1.0000
  Pb  Pb2       1.0  0.76020  0.51641  0.57045  1.0000
  C   C1        1.0  0.58800  0.69841  0.30653  1.0000
  C   C2        1.0  0.41203  0.30160  0.69348  1.0000
  C   C3        1.0  0.65915  0.80184  0.24905  1.0000
  C   C4        1.0  0.34083  0.19826  0.75100  1.0000
  C   C5        1.0  0.52780  0.80149  0.18769  1.0000
  C   C6        1.0  0.47216  0.19860  0.81236  1.0000
  C   C7        1.0  0.32770  0.69808  0.18444  1.0000
  C   C8        1.0  0.67230  0.30198  0.81558  1.0000
  C   C9        1.0  0.26871  0.59710  0.24464  1.0000
  C   C10       1.0  0.73132  0.40292  0.75538  1.0000
  C   C11       1.0  0.06115  0.48913  0.24424  1.0000
  C   C12       1.0  0.93889  0.51086  0.75576  1.0000
  C   C13       1.0  0.91608  0.49164  0.18563  1.0000
  C   C14       1.0  0.08395  0.50837  0.81437  1.0000
  C   C15       1.0  0.71594  0.39182  0.18964  1.0000
  C   C16       1.0  0.28409  0.60822  0.81037  1.0000
  C   C17       1.0  0.66727  0.29452  0.24966  1.0000
  C   C18       1.0  0.33275  0.70547  0.75033  1.0000
  C   C19       1.0  0.82172  0.29757  0.30474  1.0000
  C   C20       1.0  0.17827  0.70236  0.69525  1.0000
  C   C21       1.0  0.97484  0.59574  0.12337  1.0000
  C   C22       1.0  0.02519  0.40429  0.87665  1.0000
  C   C23       1.0  0.18196  0.69587  0.12191  1.0000
  C   C24       1.0  0.81805  0.30418  0.87811  1.0000
  C   C25       1.0  0.10387  0.78804  0.00878  1.0000
  C   C26       1.0  0.89613  0.21199  0.99124  1.0000
  C   C27       1.0  0.89535  0.69140  0.01106  1.0000
  C   C28       1.0  0.10462  0.30862  0.98896  1.0000
  C   C29       1.0  0.75136  0.69811  0.95215  1.0000
  C   C30       1.0  0.24859  0.30193  0.04787  1.0000
  C   C31       1.0  0.16188  0.88710  0.94750  1.0000
  C   C32       1.0  0.83808  0.11292  0.05250  1.0000
  C   C33       1.0  0.01851  0.89081  0.89139  1.0000
  C   C34       1.0  0.98147  0.10919  0.10862  1.0000
  C   C35       1.0  0.81290  0.79624  0.89370  1.0000
  C   C36       1.0  0.18709  0.20376  0.10630  1.0000
  C   C37       1.0  0.56258  0.80821  0.54333  1.0000
  C   C38       1.0  0.43745  0.19175  0.45663  1.0000
  C   C39       1.0  0.95615  0.21198  0.54262  1.0000
  C   C40       1.0  0.04383  0.78791  0.45735  1.0000
  C   C41       1.0  0.00533  0.04502  0.53349  1.0000
  C   C42       1.0  0.99475  0.95491  0.46649  1.0000
  C   C43       1.0  0.50814  0.97050  0.53373  1.0000
  C   C44       1.0  0.49193  0.02946  0.46623  1.0000
  N   N1        1.0  0.01241  0.39114  0.30182  1.0000
  N   N2        1.0  0.98761  0.60879  0.69817  1.0000
  N   N3        1.0  0.39904  0.59923  0.30408  1.0000
  N   N4        1.0  0.60098  0.40074  0.69593  1.0000
  N   N5        1.0  0.24379  0.78858  0.06494  1.0000
  N   N6        1.0  0.75620  0.21145  0.93508  1.0000
  N   N7        1.0  0.83520  0.59533  0.06864  1.0000
  N   N8        1.0  0.16481  0.40469  0.93137  1.0000
  O   O1        1.0  0.56680  0.70664  0.48442  1.0000
  O   O2        1.0  0.43317  0.29329  0.51556  1.0000
  O   O3        1.0  0.60763  0.77882  0.61016  1.0000
  O   O4        1.0  0.39239  0.22115  0.38979  1.0000
  O   O5        1.0  0.92561  0.28459  0.48308  1.0000
  O   O6        1.0  0.07426  0.71524  0.51688  1.0000
  O   O7        1.0  0.94298  0.27475  0.60959  1.0000
  O   O8        1.0  0.05697  0.72515  0.39037  1.0000
