data_image0
_chemical_formula_structural       CoH26C30N4O6
_chemical_formula_sum              "Co1 H26 C30 N4 O6"
_cell_length_a       8.74533
_cell_length_b       8.59961
_cell_length_c       8.87686
_cell_angle_alpha    86.5526
_cell_angle_beta     68.5851
_cell_angle_gamma    80.2193

_space_group_name_H-M_alt    "P 1"
_space_group_IT_number       1

loop_
  _space_group_symop_operation_xyz
  'x, y, z'

loop_
  _atom_site_type_symbol
  _atom_site_label
  _atom_site_symmetry_multiplicity
  _atom_site_fract_x
  _atom_site_fract_y
  _atom_site_fract_z
  _atom_site_occupancy
  Co  Co1       1.0  0.50000  0.49999  0.00000  1.0000
  H   H1        1.0  0.38479  0.25999  0.14340  1.0000
  H   H2        1.0  0.61520  0.74000  0.85660  1.0000
  H   H3        1.0  0.27426  0.39798  0.25896  1.0000
  H   H4        1.0  0.72573  0.60201  0.74104  1.0000
  H   H5        1.0  0.25140  0.70759  0.28603  1.0000
  H   H6        1.0  0.74860  0.29241  0.71398  1.0000
  H   H7        1.0  0.62063  0.77482  0.58920  1.0000
  H   H8        1.0  0.37936  0.22518  0.41081  1.0000
  H   H9        1.0  0.91647  0.63613  0.48885  1.0000
  H   H10       1.0  0.08353  0.36388  0.51116  1.0000
  H   H11       1.0  0.02377  0.46327  0.24457  1.0000
  H   H12       1.0  0.97623  0.53673  0.75544  1.0000
  H   H13       1.0  0.84608  0.43501  0.08828  1.0000
  H   H14       1.0  0.15392  0.56499  0.91173  1.0000
  H   H15       1.0  0.36944  0.92780  0.56589  1.0000
  H   H16       1.0  0.63057  0.07220  0.43410  1.0000
  H   H17       1.0  0.26213  0.77158  0.66412  1.0000
  H   H18       1.0  0.73787  0.22844  0.33588  1.0000
  H   H19       1.0  0.97517  0.83553  0.74503  1.0000
  H   H20       1.0  0.02484  0.16448  0.25496  1.0000
  H   H21       1.0  0.72152  0.97397  0.70518  1.0000
  H   H22       1.0  0.27848  0.02604  0.29481  1.0000
  H   H23       1.0  0.98391  0.27423  0.89808  1.0000
  H   H24       1.0  0.01609  0.72577  0.10191  1.0000
  H   H25       1.0  0.74079  0.88648  0.13955  1.0000
  H   H26       1.0  0.25921  0.11353  0.86045  1.0000
  C   C1        1.0  0.37159  0.67793  0.29848  1.0000
  C   C2        1.0  0.62841  0.32207  0.70152  1.0000
  C   C3        1.0  0.57153  0.67593  0.39544  1.0000
  C   C4        1.0  0.42846  0.32406  0.60457  1.0000
  C   C5        1.0  0.67018  0.69879  0.48266  1.0000
  C   C6        1.0  0.32982  0.30121  0.51734  1.0000
  C   C7        1.0  0.83353  0.61956  0.42640  1.0000
  C   C8        1.0  0.16647  0.38044  0.57361  1.0000
  C   C9        1.0  0.89501  0.52286  0.28755  1.0000
  C   C10       1.0  0.10499  0.47714  0.71246  1.0000
  C   C11       1.0  0.79690  0.50466  0.19843  1.0000
  C   C12       1.0  0.20310  0.49533  0.80157  1.0000
  C   C13       1.0  0.63179  0.58101  0.25415  1.0000
  C   C14       1.0  0.36821  0.41898  0.74585  1.0000
  C   C15       1.0  0.29676  0.84052  0.55191  1.0000
  C   C16       1.0  0.70324  0.15949  0.44809  1.0000
  C   C17       1.0  0.14377  0.92180  0.52326  1.0000
  C   C18       1.0  0.85624  0.07821  0.47673  1.0000
  C   C19       1.0  0.98656  0.90751  0.63729  1.0000
  C   C20       1.0  0.01344  0.09249  0.36270  1.0000
  C   C21       1.0  0.84345  0.98539  0.61461  1.0000
  C   C22       1.0  0.15656  0.01462  0.38538  1.0000
  C   C23       1.0  0.67560  0.19075  0.05180  1.0000
  C   C24       1.0  0.32439  0.80925  0.94820  1.0000
  C   C25       1.0  0.84323  0.09206  0.02314  1.0000
  C   C26       1.0  0.15677  0.90794  0.97686  1.0000
  C   C27       1.0  0.99070  0.15414  0.94352  1.0000
  C   C28       1.0  0.00930  0.84586  0.05648  1.0000
  C   C29       1.0  0.85449  0.93611  0.07914  1.0000
  C   C30       1.0  0.14551  0.06389  0.92086  1.0000
  N   N1        1.0  0.50264  0.58607  0.19565  1.0000
  N   N2        1.0  0.49736  0.41392  0.80436  1.0000
  N   N3        1.0  0.40740  0.73582  0.41887  1.0000
  N   N4        1.0  0.59259  0.26418  0.58113  1.0000
  O   O1        1.0  0.54541  0.13389  0.13276  1.0000
  O   O2        1.0  0.45459  0.86611  0.86724  1.0000
  O   O3        1.0  0.29535  0.35553  0.15260  1.0000
  O   O4        1.0  0.70465  0.64447  0.84741  1.0000
  O   O5        1.0  0.68003  0.33099  0.99100  1.0000
  O   O6        1.0  0.31997  0.66901  0.00900  1.0000
