data_image0
_chemical_formula_structural       Na4H20C4O16
_chemical_formula_sum              "Na4 H20 C4 O16"
_cell_length_a       7.05705
_cell_length_b       8.00782
_cell_length_c       8.60549
_cell_angle_alpha    90
_cell_angle_beta     90
_cell_angle_gamma    116.101

_space_group_name_H-M_alt    "P 1"
_space_group_IT_number       1

loop_
  _space_group_symop_operation_xyz
  'x, y, z'

loop_
  _atom_site_type_symbol
  _atom_site_label
  _atom_site_symmetry_multiplicity
  _atom_site_fract_x
  _atom_site_fract_y
  _atom_site_fract_z
  _atom_site_occupancy
  Na  Na1       1.0  0.23525  0.00002  0.00004  1.0000
  Na  Na2       1.0  0.26475  0.99998  0.50004  1.0000
  Na  Na3       1.0  0.76475  0.99998  0.99996  1.0000
  Na  Na4       1.0  0.73525  0.00002  0.49996  1.0000
  H   H1        1.0  0.73515  0.47053  0.13492  1.0000
  H   H2        1.0  0.76485  0.52947  0.63492  1.0000
  H   H3        1.0  0.26485  0.52947  0.86508  1.0000
  H   H4        1.0  0.23515  0.47053  0.36508  1.0000
  H   H5        1.0  0.28524  0.26682  0.70889  1.0000
  H   H6        1.0  0.21476  0.73318  0.20889  1.0000
  H   H7        1.0  0.01880  0.73326  0.29109  1.0000
  H   H8        1.0  0.48120  0.26674  0.79109  1.0000
  H   H9        1.0  0.71476  0.73318  0.29111  1.0000
  H   H10       1.0  0.78524  0.26682  0.79111  1.0000
  H   H11       1.0  0.98120  0.26674  0.70891  1.0000
  H   H12       1.0  0.51880  0.73326  0.20891  1.0000
  H   H13       1.0  0.08852  0.17757  0.22344  1.0000
  H   H14       1.0  0.41148  0.82243  0.72344  1.0000
  H   H15       1.0  0.91148  0.82243  0.77656  1.0000
  H   H16       1.0  0.58852  0.17757  0.27656  1.0000
  H   H17       1.0  0.16443  0.32911  0.09512  1.0000
  H   H18       1.0  0.33557  0.67089  0.59512  1.0000
  H   H19       1.0  0.83557  0.67089  0.90488  1.0000
  H   H20       1.0  0.66443  0.32911  0.40487  1.0000
  C   C1        1.0  0.68266  0.36577  0.04038  1.0000
  C   C2        1.0  0.81735  0.63423  0.54038  1.0000
  C   C3        1.0  0.31735  0.63423  0.95962  1.0000
  C   C4        1.0  0.18265  0.36577  0.45962  1.0000
  O   O1        1.0  0.59751  0.19581  0.07782  1.0000
  O   O2        1.0  0.90249  0.80419  0.57782  1.0000
  O   O3        1.0  0.40249  0.80419  0.92218  1.0000
  O   O4        1.0  0.09751  0.19581  0.42218  1.0000
  O   O5        1.0  0.71328  0.42697  0.90116  1.0000
  O   O6        1.0  0.78672  0.57303  0.40116  1.0000
  O   O7        1.0  0.28672  0.57303  0.09884  1.0000
  O   O8        1.0  0.21328  0.42697  0.59884  1.0000
  O   O9        1.0  0.09555  0.19182  0.10811  1.0000
  O   O10       1.0  0.40445  0.80818  0.60811  1.0000
  O   O11       1.0  0.90444  0.80818  0.89189  1.0000
  O   O12       1.0  0.59555  0.19182  0.39189  1.0000
  O   O13       1.0  0.34068  0.18170  0.75004  1.0000
  O   O14       1.0  0.15932  0.81830  0.25004  1.0000
  O   O15       1.0  0.65932  0.81830  0.24996  1.0000
  O   O16       1.0  0.84068  0.18170  0.74996  1.0000
