data_image0
_chemical_formula_structural       H32Pb2C44S2N6O12
_chemical_formula_sum              "H32 Pb2 C44 S2 N6 O12"
_cell_length_a       9.97569
_cell_length_b       10.1118
_cell_length_c       10.8642
_cell_angle_alpha    90.264
_cell_angle_beta     87.9984
_cell_angle_gamma    67.3977

_space_group_name_H-M_alt    "P 1"
_space_group_IT_number       1

loop_
  _space_group_symop_operation_xyz
  'x, y, z'

loop_
  _atom_site_type_symbol
  _atom_site_label
  _atom_site_symmetry_multiplicity
  _atom_site_fract_x
  _atom_site_fract_y
  _atom_site_fract_z
  _atom_site_occupancy
  H   H1        1.0  0.83763  0.90828  0.16848  1.0000
  H   H2        1.0  0.16236  0.09168  0.83153  1.0000
  H   H3        1.0  0.97780  0.78434  0.34944  1.0000
  H   H4        1.0  0.02222  0.21564  0.65057  1.0000
  H   H5        1.0  0.36669  0.60883  0.11585  1.0000
  H   H6        1.0  0.63331  0.39118  0.88415  1.0000
  H   H7        1.0  0.56817  0.73240  0.87436  1.0000
  H   H8        1.0  0.43178  0.26762  0.12567  1.0000
  H   H9        1.0  0.70324  0.87862  0.95550  1.0000
  H   H10       1.0  0.29681  0.12134  0.04446  1.0000
  H   H11       1.0  0.66808  0.11060  0.85353  1.0000
  H   H12       1.0  0.33196  0.88937  0.14644  1.0000
  H   H13       1.0  0.49990  0.19056  0.68173  1.0000
  H   H14       1.0  0.50004  0.80948  0.31831  1.0000
  H   H15       1.0  0.33869  0.25753  0.56157  1.0000
  H   H16       1.0  0.66133  0.74247  0.43841  1.0000
  H   H17       1.0  0.16069  0.31813  0.39951  1.0000
  H   H18       1.0  0.83931  0.68189  0.60050  1.0000
  H   H19       1.0  0.04983  0.13994  0.34094  1.0000
  H   H20       1.0  0.95015  0.86008  0.65908  1.0000
  H   H21       1.0  0.13989  0.90178  0.44435  1.0000
  H   H22       1.0  0.86015  0.09821  0.55562  1.0000
  H   H23       1.0  0.01802  0.86640  0.87282  1.0000
  H   H24       1.0  0.98196  0.13359  0.12718  1.0000
  H   H25       1.0  0.58662  0.64432  0.13139  1.0000
  H   H26       1.0  0.41338  0.35573  0.86862  1.0000
  H   H27       1.0  0.75394  0.61008  0.95075  1.0000
  H   H28       1.0  0.24605  0.38993  0.04926  1.0000
  H   H29       1.0  0.11002  0.42238  0.19344  1.0000
  H   H30       1.0  0.88997  0.57761  0.80656  1.0000
  H   H31       1.0  0.92613  0.46389  0.36359  1.0000
  H   H32       1.0  0.07386  0.53608  0.63641  1.0000
  Pb  Pb1       1.0  0.38305  0.68406  0.65015  1.0000
  Pb  Pb2       1.0  0.61699  0.31595  0.34984  1.0000
  C   C1        1.0  0.25089  0.72900  0.90514  1.0000
  C   C2        1.0  0.74909  0.27100  0.09485  1.0000
  C   C3        1.0  0.17473  0.74534  0.02758  1.0000
  C   C4        1.0  0.82527  0.25466  0.97242  1.0000
  C   C5        1.0  0.02307  0.82724  0.04183  1.0000
  C   C6        1.0  0.97692  0.17275  0.95818  1.0000
  C   C7        1.0  0.95332  0.84255  0.15865  1.0000
  C   C8        1.0  0.04668  0.15743  0.84136  1.0000
  C   C9        1.0  0.03143  0.77491  0.25899  1.0000
  C   C10       1.0  0.96858  0.22508  0.74102  1.0000
  C   C11       1.0  0.18044  0.69046  0.24425  1.0000
  C   C12       1.0  0.81958  0.30953  0.75575  1.0000
  C   C13       1.0  0.25147  0.67593  0.12937  1.0000
  C   C14       1.0  0.74853  0.32407  0.87063  1.0000
  C   C15       1.0  0.55749  0.83445  0.83475  1.0000
  C   C16       1.0  0.44248  0.16556  0.16526  1.0000
  C   C17       1.0  0.63019  0.91626  0.87989  1.0000
  C   C18       1.0  0.36982  0.08372  0.12010  1.0000
  C   C19       1.0  0.60995  0.04533  0.82297  1.0000
  C   C20       1.0  0.39006  0.95466  0.17702  1.0000
  C   C21       1.0  0.51561  0.08975  0.72623  1.0000
  C   C22       1.0  0.48437  0.91026  0.27379  1.0000
  C   C23       1.0  0.44404  0.00250  0.68723  1.0000
  C   C24       1.0  0.55594  0.99751  0.31278  1.0000
  C   C25       1.0  0.33800  0.04462  0.58788  1.0000
  C   C26       1.0  0.66201  0.95539  0.41211  1.0000
  C   C27       1.0  0.29540  0.17900  0.53270  1.0000
  C   C28       1.0  0.70461  0.82101  0.46729  1.0000
  C   C29       1.0  0.19215  0.21417  0.44253  1.0000
  C   C30       1.0  0.80786  0.78584  0.55746  1.0000
  C   C31       1.0  0.13275  0.11553  0.40941  1.0000
  C   C32       1.0  0.86725  0.88448  0.59059  1.0000
  C   C33       1.0  0.18157  0.98355  0.46739  1.0000
  C   C34       1.0  0.81845  0.01644  0.53259  1.0000
  C   C35       1.0  0.70380  0.59740  0.14250  1.0000
  C   C36       1.0  0.29619  0.40263  0.85751  1.0000
  C   C37       1.0  0.79820  0.57846  0.04082  1.0000
  C   C38       1.0  0.20179  0.42155  0.95919  1.0000
  C   C39       1.0  0.94873  0.51274  0.05387  1.0000
  C   C40       1.0  0.05126  0.48726  0.94613  1.0000
  C   C41       1.0  0.99534  0.47199  0.17342  1.0000
  C   C42       1.0  0.00466  0.52802  0.82658  1.0000
  C   C43       1.0  0.89267  0.49615  0.27008  1.0000
  C   C44       1.0  0.10732  0.50385  0.72993  1.0000
  S   S1        1.0  0.27841  0.59530  0.37027  1.0000
  S   S2        1.0  0.72161  0.40470  0.62973  1.0000
  N   N1        1.0  0.46785  0.87555  0.74091  1.0000
  N   N2        1.0  0.53213  0.12446  0.25910  1.0000
  N   N3        1.0  0.28125  0.94860  0.55403  1.0000
  N   N4        1.0  0.71877  0.05140  0.44595  1.0000
  N   N5        1.0  0.74841  0.55653  0.25651  1.0000
  N   N6        1.0  0.25159  0.44349  0.74349  1.0000
  O   O1        1.0  0.38526  0.65325  0.89200  1.0000
  O   O2        1.0  0.61473  0.34679  0.10799  1.0000
  O   O3        1.0  0.17371  0.79387  0.81298  1.0000
  O   O4        1.0  0.82625  0.20609  0.18701  1.0000
  O   O5        1.0  0.94393  0.88994  0.94536  1.0000
  O   O6        1.0  0.05605  0.11006  0.05466  1.0000
  O   O7        1.0  0.31500  0.44142  0.34222  1.0000
  O   O8        1.0  0.68502  0.55858  0.65780  1.0000
  O   O9        1.0  0.18159  0.64867  0.48043  1.0000
  O   O10       1.0  0.81845  0.35134  0.51957  1.0000
  O   O11       1.0  0.41208  0.62558  0.37620  1.0000
  O   O12       1.0  0.58796  0.37441  0.62378  1.0000
