data_image0
_chemical_formula_structural       Mn2H28C22N8O12
_chemical_formula_sum              "Mn2 H28 C22 N8 O12"
_cell_length_a       7.95272
_cell_length_b       9.01483
_cell_length_c       9.62628
_cell_angle_alpha    90.0014
_cell_angle_beta     90.0006
_cell_angle_gamma    96.5773

_space_group_name_H-M_alt    "P 1"
_space_group_IT_number       1

loop_
  _space_group_symop_operation_xyz
  'x, y, z'

loop_
  _atom_site_type_symbol
  _atom_site_label
  _atom_site_symmetry_multiplicity
  _atom_site_fract_x
  _atom_site_fract_y
  _atom_site_fract_z
  _atom_site_occupancy
  Mn  Mn1       1.0  0.81280  0.85151  0.11506  1.0000
  Mn  Mn2       1.0  0.18720  0.14849  0.61506  1.0000
  H   H1        1.0  0.17208  0.87875  0.03295  1.0000
  H   H2        1.0  0.82793  0.12125  0.53296  1.0000
  H   H3        1.0  0.17196  0.87851  0.19732  1.0000
  H   H4        1.0  0.82805  0.12148  0.69733  1.0000
  H   H5        1.0  0.47592  0.80685  0.03257  1.0000
  H   H6        1.0  0.52409  0.19315  0.53258  1.0000
  H   H7        1.0  0.47590  0.80681  0.19781  1.0000
  H   H8        1.0  0.52410  0.19319  0.69782  1.0000
  H   H9        1.0  0.73259  0.38671  0.75402  1.0000
  H   H10       1.0  0.26740  0.61329  0.25405  1.0000
  H   H11       1.0  0.62491  0.51310  0.99585  1.0000
  H   H12       1.0  0.37509  0.48691  0.49587  1.0000
  H   H13       1.0  0.98954  0.82446  0.80267  1.0000
  H   H14       1.0  0.01046  0.17553  0.30267  1.0000
  H   H15       1.0  0.09477  0.66357  0.61517  1.0000
  H   H16       1.0  0.90522  0.33642  0.11518  1.0000
  H   H17       1.0  0.02025  0.46895  0.61518  1.0000
  H   H18       1.0  0.97973  0.53105  0.11519  1.0000
  H   H19       1.0  0.98986  0.82448  0.42754  1.0000
  H   H20       1.0  0.01015  0.17551  0.92754  1.0000
  H   H21       1.0  0.62601  0.51297  0.23363  1.0000
  H   H22       1.0  0.37398  0.48702  0.73365  1.0000
  H   H23       1.0  0.73334  0.38644  0.47543  1.0000
  H   H24       1.0  0.26665  0.61356  0.97546  1.0000
  H   H25       1.0  0.45255  0.19207  0.99494  1.0000
  H   H26       1.0  0.54747  0.80794  0.49493  1.0000
  H   H27       1.0  0.45259  0.19189  0.23566  1.0000
  H   H28       1.0  0.54743  0.80817  0.73565  1.0000
  C   C1        1.0  0.76794  0.49550  0.80007  1.0000
  C   C2        1.0  0.23206  0.50450  0.30009  1.0000
  C   C3        1.0  0.71823  0.55858  0.92075  1.0000
  C   C4        1.0  0.28176  0.44141  0.42076  1.0000
  C   C5        1.0  0.90490  0.72354  0.82535  1.0000
  C   C6        1.0  0.09510  0.27646  0.32536  1.0000
  C   C7        1.0  0.98182  0.58183  0.61504  1.0000
  C   C8        1.0  0.01817  0.41816  0.11505  1.0000
  C   C9        1.0  0.90530  0.72354  0.40473  1.0000
  C   C10       1.0  0.09470  0.27645  0.90474  1.0000
  C   C11       1.0  0.71903  0.55854  0.30892  1.0000
  C   C12       1.0  0.28096  0.44146  0.80894  1.0000
  C   C13       1.0  0.76854  0.49534  0.42957  1.0000
  C   C14       1.0  0.23145  0.50466  0.92959  1.0000
  C   C15       1.0  0.68256  0.10150  0.94072  1.0000
  C   C16       1.0  0.31743  0.89850  0.44071  1.0000
  C   C17       1.0  0.55959  0.14738  0.04479  1.0000
  C   C18       1.0  0.44042  0.85261  0.54479  1.0000
  C   C19       1.0  0.55963  0.14728  0.18578  1.0000
  C   C20       1.0  0.44036  0.85273  0.68580  1.0000
  C   C21       1.0  0.68269  0.10133  0.28968  1.0000
  C   C22       1.0  0.31732  0.89868  0.78967  1.0000
  N   N1        1.0  0.80564  0.69981  0.93608  1.0000
  N   N2        1.0  0.19436  0.30019  0.43609  1.0000
  N   N3        1.0  0.88641  0.60141  0.74091  1.0000
  N   N4        1.0  0.11359  0.39859  0.24092  1.0000
  N   N5        1.0  0.80629  0.69983  0.29386  1.0000
  N   N6        1.0  0.19371  0.30016  0.79387  1.0000
  N   N7        1.0  0.88676  0.60128  0.48899  1.0000
  N   N8        1.0  0.11323  0.39871  0.98901  1.0000
  O   O1        1.0  0.80375  0.02697  0.97382  1.0000
  O   O2        1.0  0.19625  0.97302  0.47381  1.0000
  O   O3        1.0  0.66359  0.14454  0.81554  1.0000
  O   O4        1.0  0.33642  0.85543  0.31553  1.0000
  O   O5        1.0  0.80382  0.02677  0.25663  1.0000
  O   O6        1.0  0.19618  0.97323  0.75662  1.0000
  O   O7        1.0  0.66356  0.14435  0.41487  1.0000
  O   O8        1.0  0.33645  0.85566  0.91484  1.0000
  O   O9        1.0  0.09489  0.87279  0.11511  1.0000
  O   O10       1.0  0.90512  0.12721  0.61512  1.0000
  O   O11       1.0  0.53725  0.77382  0.11517  1.0000
  O   O12       1.0  0.46275  0.22617  0.61518  1.0000
