data_image0
_chemical_formula_structural       Cu2H40C36N8O8
_chemical_formula_sum              "Cu2 H40 C36 N8 O8"
_cell_length_a       7.1828
_cell_length_b       8.52858
_cell_length_c       17.1244
_cell_angle_alpha    77.8575
_cell_angle_beta     77.9021
_cell_angle_gamma    65.1264

_space_group_name_H-M_alt    "P 1"
_space_group_IT_number       1

loop_
  _space_group_symop_operation_xyz
  'x, y, z'

loop_
  _atom_site_type_symbol
  _atom_site_label
  _atom_site_symmetry_multiplicity
  _atom_site_fract_x
  _atom_site_fract_y
  _atom_site_fract_z
  _atom_site_occupancy
  Cu  Cu1       1.0  1.00000  0.50000  0.50000  1.0000
  Cu  Cu2       1.0  0.00000  0.00000  0.00000  1.0000
  H   H1        1.0  0.50113  0.33478  0.46535  1.0000
  H   H2        1.0  0.30168  0.16530  0.03469  1.0000
  H   H3        1.0  0.49887  0.66521  0.53465  1.0000
  H   H4        1.0  0.69832  0.83470  0.96531  1.0000
  H   H5        1.0  0.81399  0.90807  0.38707  1.0000
  H   H6        1.0  0.10942  0.59196  0.11309  1.0000
  H   H7        1.0  0.18600  0.09192  0.61293  1.0000
  H   H8        1.0  0.89059  0.40804  0.88691  1.0000
  H   H9        1.0  0.82723  0.07512  0.42955  1.0000
  H   H10       1.0  0.33223  0.42514  0.07058  1.0000
  H   H11       1.0  0.17276  0.92486  0.57045  1.0000
  H   H12       1.0  0.66778  0.57486  0.92942  1.0000
  H   H13       1.0  0.44618  0.96012  0.35414  1.0000
  H   H14       1.0  0.76102  0.53958  0.14596  1.0000
  H   H15       1.0  0.55380  0.03988  0.64586  1.0000
  H   H16       1.0  0.23899  0.46042  0.85404  1.0000
  H   H17       1.0  0.05115  0.19193  0.41092  1.0000
  H   H18       1.0  0.65469  0.30780  0.08897  1.0000
  H   H19       1.0  0.94883  0.80806  0.58909  1.0000
  H   H20       1.0  0.34532  0.69220  0.91102  1.0000
  H   H21       1.0  0.88118  0.75029  0.25000  1.0000
  H   H22       1.0  0.11883  0.24972  0.75001  1.0000
  H   H23       1.0  0.38963  0.58315  0.36456  1.0000
  H   H24       1.0  0.33762  0.91644  0.13526  1.0000
  H   H25       1.0  0.61037  0.41685  0.63544  1.0000
  H   H26       1.0  0.66239  0.08356  0.86474  1.0000
  H   H27       1.0  0.19037  0.74965  0.24990  1.0000
  H   H28       1.0  0.80964  0.25035  0.75010  1.0000
  H   H29       1.0  0.99698  0.07561  0.28551  1.0000
  H   H30       1.0  0.35857  0.42467  0.21456  1.0000
  H   H31       1.0  0.00301  0.92439  0.71449  1.0000
  H   H32       1.0  0.64144  0.57533  0.78544  1.0000
  H   H33       1.0  0.77386  0.27279  0.29625  1.0000
  H   H34       1.0  0.34341  0.22740  0.20387  1.0000
  H   H35       1.0  0.22614  0.72721  0.70375  1.0000
  H   H36       1.0  0.65660  0.77261  0.79613  1.0000
  H   H37       1.0  0.76525  0.10381  0.25292  1.0000
  H   H38       1.0  0.12261  0.39619  0.24726  1.0000
  H   H39       1.0  0.23475  0.89620  0.74707  1.0000
  H   H40       1.0  0.87740  0.60381  0.75274  1.0000
  C   C1        1.0  0.42852  0.26403  0.44526  1.0000
  C   C2        1.0  0.13829  0.23595  0.05478  1.0000
  C   C3        1.0  0.57148  0.73596  0.55473  1.0000
  C   C4        1.0  0.86172  0.76406  0.94522  1.0000
  C   C5        1.0  0.76215  0.05002  0.38326  1.0000
  C   C6        1.0  0.19581  0.45004  0.11687  1.0000
  C   C7        1.0  0.23783  0.94997  0.61674  1.0000
  C   C8        1.0  0.80420  0.54996  0.88313  1.0000
  C   C9        1.0  0.39661  0.07140  0.38574  1.0000
  C   C10       1.0  0.85432  0.42837  0.11433  1.0000
  C   C11       1.0  0.60337  0.92860  0.61426  1.0000
  C   C12       1.0  0.14568  0.57163  0.88567  1.0000
  C   C13       1.0  0.20332  0.18493  0.41423  1.0000
  C   C14       1.0  0.80310  0.31489  0.08572  1.0000
  C   C15       1.0  0.79667  0.81507  0.58578  1.0000
  C   C16       1.0  0.19692  0.68511  0.91428  1.0000
  C   C17       1.0  0.76602  0.56425  0.38509  1.0000
  C   C18       1.0  0.71535  0.93581  0.11484  1.0000
  C   C19       1.0  0.23398  0.43575  0.61491  1.0000
  C   C20       1.0  0.28465  0.06419  0.88516  1.0000
  C   C21       1.0  0.64824  0.65662  0.31465  1.0000
  C   C22       1.0  0.61948  0.84347  0.18527  1.0000
  C   C23       1.0  0.35177  0.34338  0.68535  1.0000
  C   C24       1.0  0.38053  0.15654  0.81473  1.0000
  C   C25       1.0  0.72981  0.75014  0.24997  1.0000
  C   C26       1.0  0.27019  0.24986  0.75003  1.0000
  C   C27       1.0  0.45364  0.65555  0.31409  1.0000
  C   C28       1.0  0.42348  0.84418  0.18574  1.0000
  C   C29       1.0  0.54636  0.34445  0.68591  1.0000
  C   C30       1.0  0.57653  0.15583  0.81426  1.0000
  C   C31       1.0  0.34206  0.74979  0.24991  1.0000
  C   C32       1.0  0.65795  0.25021  0.75009  1.0000
  C   C33       1.0  0.82735  0.13084  0.29962  1.0000
  C   C34       1.0  0.25825  0.36933  0.20051  1.0000
  C   C35       1.0  0.17264  0.86916  0.70038  1.0000
  C   C36       1.0  0.74175  0.63067  0.79949  1.0000
  N   N1        1.0  0.22576  0.30402  0.45112  1.0000
  N   N2        1.0  0.98145  0.19591  0.04882  1.0000
  N   N3        1.0  0.77424  0.69597  0.54888  1.0000
  N   N4        1.0  0.01856  0.80409  0.95118  1.0000
  N   N5        1.0  0.53668  0.12331  0.40577  1.0000
  N   N6        1.0  0.06625  0.37658  0.09434  1.0000
  N   N7        1.0  0.46331  0.87669  0.59423  1.0000
  N   N8        1.0  0.93376  0.62342  0.90566  1.0000
  O   O1        1.0  0.90987  0.61355  0.39061  1.0000
  O   O2        1.0  0.91392  0.88672  0.10942  1.0000
  O   O3        1.0  0.09014  0.38644  0.60939  1.0000
  O   O4        1.0  0.08609  0.11328  0.89058  1.0000
  O   O5        1.0  0.72071  0.45065  0.43516  1.0000
  O   O6        1.0  0.60674  0.04915  0.06466  1.0000
  O   O7        1.0  0.27929  0.54934  0.56484  1.0000
  O   O8        1.0  0.39327  0.95087  0.93534  1.0000
