data_image0
_chemical_formula_structural       Na2H12Au2C16S4N8
_chemical_formula_sum              "Na2 H12 Au2 C16 S4 N8"
_cell_length_a       7.99453
_cell_length_b       7.99447
_cell_length_c       10.8587
_cell_angle_alpha    102.445
_cell_angle_beta     102.445
_cell_angle_gamma    114.458

_space_group_name_H-M_alt    "P 1"
_space_group_IT_number       1

loop_
  _space_group_symop_operation_xyz
  'x, y, z'

loop_
  _atom_site_type_symbol
  _atom_site_label
  _atom_site_symmetry_multiplicity
  _atom_site_fract_x
  _atom_site_fract_y
  _atom_site_fract_z
  _atom_site_occupancy
  Na  Na1       1.0  0.32716  0.67282  0.99999  1.0000
  Na  Na2       1.0  0.57724  0.42279  0.50000  1.0000
  H   H1        1.0  0.74455  0.62257  0.03766  1.0000
  H   H2        1.0  0.37738  0.25540  0.96232  1.0000
  H   H3        1.0  0.66463  0.04259  0.53808  1.0000
  H   H4        1.0  0.95744  0.33542  0.46193  1.0000
  H   H5        1.0  0.02231  0.66620  0.22777  1.0000
  H   H6        1.0  0.33376  0.97768  0.77224  1.0000
  H   H7        1.0  0.81132  0.95496  0.72805  1.0000
  H   H8        1.0  0.04504  0.18870  0.27197  1.0000
  H   H9        1.0  0.97548  0.69201  0.45395  1.0000
  H   H10       1.0  0.30801  0.02451  0.54604  1.0000
  H   H11       1.0  0.01221  0.22800  0.95417  1.0000
  H   H12       1.0  0.77201  0.98777  0.04586  1.0000
  Au  Au1       1.0  0.34379  0.65620  0.50000  1.0000
  Au  Au2       1.0  0.09411  0.90588  1.00000  1.0000
  C   C1        1.0  0.56724  0.66157  0.28167  1.0000
  C   C2        1.0  0.33850  0.43279  0.71833  1.0000
  C   C3        1.0  0.86994  0.46388  0.78189  1.0000
  C   C4        1.0  0.53612  0.13008  0.21811  1.0000
  C   C5        1.0  0.73907  0.64149  0.13926  1.0000
  C   C6        1.0  0.35850  0.26091  0.86072  1.0000
  C   C7        1.0  0.74751  0.14972  0.63961  1.0000
  C   C8        1.0  0.85029  0.25251  0.36040  1.0000
  C   C9        1.0  0.89186  0.66405  0.24377  1.0000
  C   C10       1.0  0.33586  0.10810  0.75621  1.0000
  C   C11       1.0  0.82953  0.10141  0.74407  1.0000
  C   C12       1.0  0.89859  0.17048  0.25595  1.0000
  C   C13       1.0  0.86507  0.67928  0.36734  1.0000
  C   C14       1.0  0.32077  0.13494  0.63266  1.0000
  C   C15       1.0  0.93822  0.25178  0.86755  1.0000
  C   C16       1.0  0.74822  0.06179  0.13245  1.0000
  S   S1        1.0  0.35559  0.66738  0.29321  1.0000
  S   S2        1.0  0.33268  0.64443  0.70681  1.0000
  S   S3        1.0  0.87564  0.68703  0.79348  1.0000
  S   S4        1.0  0.31297  0.12436  0.20651  1.0000
  N   N1        1.0  0.57966  0.64357  0.15749  1.0000
  N   N2        1.0  0.35639  0.42031  0.84250  1.0000
  N   N3        1.0  0.76358  0.32729  0.65775  1.0000
  N   N4        1.0  0.67269  0.23639  0.34226  1.0000
  N   N5        1.0  0.70280  0.67362  0.38757  1.0000
  N   N6        1.0  0.32634  0.29718  0.61241  1.0000
  N   N7        1.0  0.96395  0.43422  0.88774  1.0000
  N   N8        1.0  0.56580  0.03612  0.11225  1.0000
