data_image0
_chemical_formula_structural       Cu2Mo6H16C12N8O22
_chemical_formula_sum              "Cu2 Mo6 H16 C12 N8 O22"
_cell_length_a       8.05858
_cell_length_b       10.2424
_cell_length_c       10.7136
_cell_angle_alpha    64.1395
_cell_angle_beta     75.3349
_cell_angle_gamma    70.9855

_space_group_name_H-M_alt    "P 1"
_space_group_IT_number       1

loop_
  _space_group_symop_operation_xyz
  'x, y, z'

loop_
  _atom_site_type_symbol
  _atom_site_label
  _atom_site_symmetry_multiplicity
  _atom_site_fract_x
  _atom_site_fract_y
  _atom_site_fract_z
  _atom_site_occupancy
  Cu  Cu1       1.0  0.74312  0.03689  0.26135  1.0000
  Cu  Cu2       1.0  0.25688  0.96311  0.73865  1.0000
  Mo  Mo1       1.0  0.98547  0.33532  0.03368  1.0000
  Mo  Mo2       1.0  0.01452  0.66468  0.96632  1.0000
  Mo  Mo3       1.0  0.60930  0.61508  0.85025  1.0000
  Mo  Mo4       1.0  0.39070  0.38492  0.14975  1.0000
  Mo  Mo5       1.0  0.36960  0.34806  0.86225  1.0000
  Mo  Mo6       1.0  0.63040  0.65194  0.13775  1.0000
  H   H1        1.0  0.07529  0.65910  0.65011  1.0000
  H   H2        1.0  0.92471  0.34090  0.34989  1.0000
  H   H3        1.0  0.85506  0.91470  0.73179  1.0000
  H   H4        1.0  0.14494  0.08530  0.26821  1.0000
  H   H5        1.0  0.06150  0.70918  0.23935  1.0000
  H   H6        1.0  0.93851  0.29082  0.76065  1.0000
  H   H7        1.0  0.22542  0.53328  0.47867  1.0000
  H   H8        1.0  0.77458  0.46672  0.52133  1.0000
  H   H9        1.0  0.49461  0.24886  0.45328  1.0000
  H   H10       1.0  0.50540  0.75115  0.54671  1.0000
  H   H11       1.0  0.60181  0.14622  0.71601  1.0000
  H   H12       1.0  0.39819  0.85378  0.28399  1.0000
  H   H13       1.0  0.79528  0.90822  0.08861  1.0000
  H   H14       1.0  0.20472  0.09179  0.91139  1.0000
  H   H15       1.0  0.68282  0.07887  0.02245  1.0000
  H   H16       1.0  0.31719  0.92113  0.97755  1.0000
  C   C1        1.0  0.92384  0.82921  0.48957  1.0000
  C   C2        1.0  0.07616  0.17079  0.51043  1.0000
  C   C3        1.0  0.80581  0.94420  0.53443  1.0000
  C   C4        1.0  0.19419  0.05580  0.46557  1.0000
  C   C5        1.0  0.03933  0.72493  0.33644  1.0000
  C   C6        1.0  0.96067  0.27507  0.66356  1.0000
  C   C7        1.0  0.12192  0.63604  0.45464  1.0000
  C   C8        1.0  0.87808  0.36396  0.54536  1.0000
  C   C9        1.0  0.59469  0.15109  0.50486  1.0000
  C   C10       1.0  0.40531  0.84891  0.49514  1.0000
  C   C11       1.0  0.64515  0.10139  0.63505  1.0000
  C   C12       1.0  0.35485  0.89861  0.36495  1.0000
  N   N1        1.0  0.91591  0.84427  0.35963  1.0000
  N   N2        1.0  0.08409  0.15573  0.64037  1.0000
  N   N3        1.0  0.69586  0.05228  0.44384  1.0000
  N   N4        1.0  0.30414  0.94773  0.55616  1.0000
  N   N5        1.0  0.04827  0.70380  0.54921  1.0000
  N   N6        1.0  0.95173  0.29620  0.45079  1.0000
  N   N7        1.0  0.77777  0.97219  0.65100  1.0000
  N   N8        1.0  0.22223  0.02781  0.34901  1.0000
  O   O1        1.0  0.80773  0.38946  0.94139  1.0000
  O   O2        1.0  0.19227  0.61054  0.05861  1.0000
  O   O3        1.0  0.46131  0.46797  0.91230  1.0000
  O   O4        1.0  0.53868  0.53203  0.08771  1.0000
  O   O5        1.0  0.43155  0.77532  0.81150  1.0000
  O   O6        1.0  0.56845  0.22468  0.18850  1.0000
  O   O7        1.0  0.17323  0.25963  0.90637  1.0000
  O   O8        1.0  0.82677  0.74037  0.09363  1.0000
  O   O9        1.0  0.70848  0.61116  0.69025  1.0000
  O   O10       1.0  0.29152  0.38884  0.30975  1.0000
  O   O11       1.0  0.25012  0.31469  0.09327  1.0000
  O   O12       1.0  0.74988  0.68532  0.90673  1.0000
  O   O13       1.0  0.53972  0.18627  0.89960  1.0000
  O   O14       1.0  0.46027  0.81372  0.10040  1.0000
  O   O15       1.0  0.96991  0.16498  0.17177  1.0000
  O   O16       1.0  0.03009  0.83502  0.82823  1.0000
  O   O17       1.0  0.90491  0.46810  0.12349  1.0000
  O   O18       1.0  0.09508  0.53190  0.87651  1.0000
  O   O19       1.0  0.39044  0.43238  0.68371  1.0000
  O   O20       1.0  0.60956  0.56762  0.31629  1.0000
  O   O21       1.0  0.77522  0.01163  0.08492  1.0000
  O   O22       1.0  0.22478  0.98837  0.91508  1.0000
