data_image0
_chemical_formula_structural       Tb2P4H20C12N6O22
_chemical_formula_sum              "Tb2 P4 H20 C12 N6 O22"
_cell_length_a       8.67215
_cell_length_b       8.67215
_cell_length_c       9.92675
_cell_angle_alpha    76.6065
_cell_angle_beta     76.6066
_cell_angle_gamma    76.5262

_space_group_name_H-M_alt    "P 1"
_space_group_IT_number       1

loop_
  _space_group_symop_operation_xyz
  'x, y, z'

loop_
  _atom_site_type_symbol
  _atom_site_label
  _atom_site_symmetry_multiplicity
  _atom_site_fract_x
  _atom_site_fract_y
  _atom_site_fract_z
  _atom_site_occupancy
  Tb  Tb1       1.0  0.86427  0.13573  0.75000  1.0000
  Tb  Tb2       1.0  0.13573  0.86427  0.25000  1.0000
  P   P1        1.0  0.25185  0.05375  0.88155  1.0000
  P   P2        1.0  0.94625  0.74815  0.61845  1.0000
  P   P3        1.0  0.74815  0.94625  0.11845  1.0000
  P   P4        1.0  0.05375  0.25185  0.38155  1.0000
  H   H1        1.0  0.38342  0.25164  0.85523  1.0000
  H   H2        1.0  0.74836  0.61658  0.64477  1.0000
  H   H3        1.0  0.61658  0.74836  0.14477  1.0000
  H   H4        1.0  0.25164  0.38342  0.35523  1.0000
  H   H5        1.0  0.53642  0.93357  0.84387  1.0000
  H   H6        1.0  0.06643  0.46358  0.65613  1.0000
  H   H7        1.0  0.46358  0.06643  0.15613  1.0000
  H   H8        1.0  0.93357  0.53642  0.34387  1.0000
  H   H9        1.0  0.41641  0.79815  0.83318  1.0000
  H   H10       1.0  0.20185  0.58359  0.66682  1.0000
  H   H11       1.0  0.58359  0.20185  0.16682  1.0000
  H   H12       1.0  0.79815  0.41641  0.33318  1.0000
  H   H13       1.0  0.60128  0.22601  0.39722  1.0000
  H   H14       1.0  0.77399  0.39872  0.10278  1.0000
  H   H15       1.0  0.39872  0.77399  0.60278  1.0000
  H   H16       1.0  0.22601  0.60128  0.89722  1.0000
  H   H17       1.0  0.75293  0.04856  0.39553  1.0000
  H   H18       1.0  0.95144  0.24707  0.10447  1.0000
  H   H19       1.0  0.24707  0.95144  0.60447  1.0000
  H   H20       1.0  0.04856  0.75293  0.89553  1.0000
  C   C1        1.0  0.43258  0.92430  0.80272  1.0000
  C   C2        1.0  0.07570  0.56742  0.69728  1.0000
  C   C3        1.0  0.56742  0.07570  0.19728  1.0000
  C   C4        1.0  0.92430  0.43258  0.30272  1.0000
  C   C5        1.0  0.58195  0.05324  0.58475  1.0000
  C   C6        1.0  0.94676  0.41805  0.91525  1.0000
  C   C7        1.0  0.41805  0.94676  0.41525  1.0000
  C   C8        1.0  0.05324  0.58195  0.08475  1.0000
  C   C9        1.0  0.62259  0.09339  0.42713  1.0000
  C   C10       1.0  0.90661  0.37741  0.07287  1.0000
  C   C11       1.0  0.37741  0.90661  0.57287  1.0000
  C   C12       1.0  0.09339  0.62259  0.92713  1.0000
  N   N1        1.0  0.46724  0.96794  0.64913  1.0000
  N   N2        1.0  0.03206  0.53276  0.85087  1.0000
  N   N3        1.0  0.53276  0.03206  0.35087  1.0000
  N   N4        1.0  0.96794  0.46724  0.14913  1.0000
  N   N5        1.0  0.57219  0.42781  0.75000  1.0000
  N   N6        1.0  0.42781  0.57219  0.25000  1.0000
  O   O1        1.0  0.11003  0.04513  0.82129  1.0000
  O   O2        1.0  0.95487  0.88997  0.67871  1.0000
  O   O3        1.0  0.88997  0.95487  0.17871  1.0000
  O   O4        1.0  0.04513  0.11003  0.32129  1.0000
  O   O5        1.0  0.23940  0.00636  0.04003  1.0000
  O   O6        1.0  0.99364  0.76061  0.45997  1.0000
  O   O7        1.0  0.76060  0.99364  0.95997  1.0000
  O   O8        1.0  0.00636  0.23939  0.54003  1.0000
  O   O9        1.0  0.28659  0.23300  0.82791  1.0000
  O   O10       1.0  0.76699  0.71341  0.67210  1.0000
  O   O11       1.0  0.71341  0.76699  0.17209  1.0000
  O   O12       1.0  0.23301  0.28659  0.32791  1.0000
  O   O13       1.0  0.65959  0.10449  0.65163  1.0000
  O   O14       1.0  0.89551  0.34041  0.84837  1.0000
  O   O15       1.0  0.34040  0.89551  0.34837  1.0000
  O   O16       1.0  0.10449  0.65959  0.15163  1.0000
  O   O17       1.0  0.57057  0.30204  0.84751  1.0000
  O   O18       1.0  0.69795  0.42943  0.65249  1.0000
  O   O19       1.0  0.42943  0.69796  0.15249  1.0000
  O   O20       1.0  0.30204  0.57057  0.34751  1.0000
  O   O21       1.0  0.45619  0.54381  0.75000  1.0000
  O   O22       1.0  0.54381  0.45619  0.25000  1.0000
