data_image0
_chemical_formula_structural       Zn2H20C24N4O12
_chemical_formula_sum              "Zn2 H20 C24 N4 O12"
_cell_length_a       6.85687
_cell_length_b       6.85688
_cell_length_c       13.1921
_cell_angle_alpha    81.3595
_cell_angle_beta     81.36
_cell_angle_gamma    70.5825

_space_group_name_H-M_alt    "P 1"
_space_group_IT_number       1

loop_
  _space_group_symop_operation_xyz
  'x, y, z'

loop_
  _atom_site_type_symbol
  _atom_site_label
  _atom_site_symmetry_multiplicity
  _atom_site_fract_x
  _atom_site_fract_y
  _atom_site_fract_z
  _atom_site_occupancy
  Zn  Zn1       1.0  0.70613  0.29386  0.25000  1.0000
  Zn  Zn2       1.0  0.29387  0.70613  0.75000  1.0000
  H   H1        1.0  0.17320  0.58252  0.52485  1.0000
  H   H2        1.0  0.41748  0.82681  0.97515  1.0000
  H   H3        1.0  0.82680  0.41748  0.47515  1.0000
  H   H4        1.0  0.58252  0.17319  0.02485  1.0000
  H   H5        1.0  0.80304  0.77159  0.58250  1.0000
  H   H6        1.0  0.22841  0.19696  0.91750  1.0000
  H   H7        1.0  0.19696  0.22841  0.41750  1.0000
  H   H8        1.0  0.77159  0.80304  0.08250  1.0000
  H   H9        1.0  0.61159  0.07894  0.46252  1.0000
  H   H10       1.0  0.92106  0.38841  0.03748  1.0000
  H   H11       1.0  0.38841  0.92106  0.53748  1.0000
  H   H12       1.0  0.07894  0.61159  0.96252  1.0000
  H   H13       1.0  0.74916  0.62078  0.29944  1.0000
  H   H14       1.0  0.37922  0.25084  0.20056  1.0000
  H   H15       1.0  0.25084  0.37922  0.70056  1.0000
  H   H16       1.0  0.62078  0.74916  0.79944  1.0000
  H   H17       1.0  0.98387  0.51557  0.24250  1.0000
  H   H18       1.0  0.48443  0.01612  0.25750  1.0000
  H   H19       1.0  0.01613  0.48443  0.75750  1.0000
  H   H20       1.0  0.51557  0.98387  0.74250  1.0000
  C   C1        1.0  0.39694  0.64994  0.35042  1.0000
  C   C2        1.0  0.35006  0.60306  0.14958  1.0000
  C   C3        1.0  0.60306  0.35006  0.64958  1.0000
  C   C4        1.0  0.64994  0.39694  0.85042  1.0000
  C   C5        1.0  0.16612  0.75050  0.37290  1.0000
  C   C6        1.0  0.24949  0.83388  0.12710  1.0000
  C   C7        1.0  0.83388  0.24950  0.62710  1.0000
  C   C8        1.0  0.75051  0.16612  0.87290  1.0000
  C   C9        1.0  0.03892  0.90376  0.30588  1.0000
  C   C10       1.0  0.09623  0.96108  0.19412  1.0000
  C   C11       1.0  0.96108  0.09624  0.69412  1.0000
  C   C12       1.0  0.90377  0.03892  0.80588  1.0000
  C   C13       1.0  0.07804  0.70172  0.47237  1.0000
  C   C14       1.0  0.29827  0.92197  0.02763  1.0000
  C   C15       1.0  0.92197  0.29828  0.52763  1.0000
  C   C16       1.0  0.70173  0.07803  0.97237  1.0000
  C   C17       1.0  0.87395  0.81025  0.50592  1.0000
  C   C18       1.0  0.18974  0.12605  0.99409  1.0000
  C   C19       1.0  0.12605  0.18975  0.49408  1.0000
  C   C20       1.0  0.81026  0.87395  0.00591  1.0000
  C   C21       1.0  0.76570  0.97464  0.43934  1.0000
  C   C22       1.0  0.02536  0.23430  0.06066  1.0000
  C   C23       1.0  0.23431  0.02536  0.56066  1.0000
  C   C24       1.0  0.97464  0.76570  0.93934  1.0000
  N   N1        1.0  0.84595  0.01712  0.34309  1.0000
  N   N2        1.0  0.98287  0.15405  0.15691  1.0000
  N   N3        1.0  0.15405  0.98288  0.65691  1.0000
  N   N4        1.0  0.01713  0.84595  0.84309  1.0000
  O   O1        1.0  0.46685  0.45209  0.36253  1.0000
  O   O2        1.0  0.54790  0.53315  0.13747  1.0000
  O   O3        1.0  0.53315  0.54791  0.63747  1.0000
  O   O4        1.0  0.45210  0.46685  0.86254  1.0000
  O   O5        1.0  0.50506  0.77212  0.32472  1.0000
  O   O6        1.0  0.22787  0.49493  0.17527  1.0000
  O   O7        1.0  0.49494  0.22787  0.67527  1.0000
  O   O8        1.0  0.77213  0.50507  0.82473  1.0000
  O   O9        1.0  0.86670  0.48876  0.28990  1.0000
  O   O10       1.0  0.51123  0.13330  0.21010  1.0000
  O   O11       1.0  0.13330  0.51124  0.71010  1.0000
  O   O12       1.0  0.48877  0.86670  0.78990  1.0000
