data_image0
_chemical_formula_structural       H28Pb2C40N12O18
_chemical_formula_sum              "H28 Pb2 C40 N12 O18"
_cell_length_a       6.76638
_cell_length_b       11.7685
_cell_length_c       14.205
_cell_angle_alpha    86.1076
_cell_angle_beta     76.1961
_cell_angle_gamma    73.4052

_space_group_name_H-M_alt    "P 1"
_space_group_IT_number       1

loop_
  _space_group_symop_operation_xyz
  'x, y, z'

loop_
  _atom_site_type_symbol
  _atom_site_label
  _atom_site_symmetry_multiplicity
  _atom_site_fract_x
  _atom_site_fract_y
  _atom_site_fract_z
  _atom_site_occupancy
  H   H1        1.0  0.78961  0.50588  0.92023  1.0000
  H   H2        1.0  0.21544  0.49397  0.07954  1.0000
  H   H3        1.0  0.45966  0.00592  0.57970  1.0000
  H   H4        1.0  0.04458  0.99423  0.42052  1.0000
  H   H5        1.0  0.77941  0.29654  0.94793  1.0000
  H   H6        1.0  0.02421  0.70318  0.05201  1.0000
  H   H7        1.0  0.47717  0.79659  0.55196  1.0000
  H   H8        1.0  0.82573  0.20343  0.44815  1.0000
  H   H9        1.0  0.85791  0.16428  0.80274  1.0000
  H   H10       1.0  0.82524  0.83516  0.19727  1.0000
  H   H11       1.0  0.41046  0.66432  0.69710  1.0000
  H   H12       1.0  0.77228  0.33541  0.30292  1.0000
  H   H13       1.0  0.95602  0.24724  0.63790  1.0000
  H   H14       1.0  0.84104  0.75206  0.36204  1.0000
  H   H15       1.0  0.34377  0.74730  0.86193  1.0000
  H   H16       1.0  0.95328  0.25227  0.13813  1.0000
  H   H17       1.0  0.76957  0.69995  0.87799  1.0000
  H   H18       1.0  0.34775  0.29984  0.12204  1.0000
  H   H19       1.0  0.39737  0.20000  0.62206  1.0000
  H   H20       1.0  0.21942  0.80001  0.37801  1.0000
  H   H21       1.0  0.67367  0.52799  0.44809  1.0000
  H   H22       1.0  0.64932  0.47227  0.55178  1.0000
  H   H23       1.0  0.87174  0.02769  0.05195  1.0000
  H   H24       1.0  0.95141  0.97193  0.94827  1.0000
  H   H25       1.0  0.94580  0.96570  0.64974  1.0000
  H   H26       1.0  0.56116  0.03468  0.35036  1.0000
  H   H27       1.0  0.34525  0.46579  0.85034  1.0000
  H   H28       1.0  0.66125  0.53478  0.14950  1.0000
  Pb  Pb1       1.0  0.11281  0.49993  0.49994  1.0000
  Pb  Pb2       1.0  0.36270  0.99994  0.99998  1.0000
  C   C1        1.0  0.94157  0.76052  0.65517  1.0000
  C   C2        1.0  0.35748  0.23964  0.34480  1.0000
  C   C3        1.0  0.34642  0.26062  0.84483  1.0000
  C   C4        1.0  0.45206  0.73977  0.15516  1.0000
  C   C5        1.0  0.87723  0.79600  0.75249  1.0000
  C   C6        1.0  0.42585  0.20407  0.24758  1.0000
  C   C7        1.0  0.37938  0.29609  0.74752  1.0000
  C   C8        1.0  0.42307  0.70421  0.25239  1.0000
  C   C9        1.0  0.00091  0.82549  0.56525  1.0000
  C   C10       1.0  0.39140  0.17476  0.43472  1.0000
  C   C11       1.0  0.31597  0.32558  0.93476  1.0000
  C   C12       1.0  0.57598  0.67490  0.06521  1.0000
  C   C13       1.0  0.85339  0.90939  0.79910  1.0000
  C   C14       1.0  0.56221  0.09068  0.20093  1.0000
  C   C15       1.0  0.40211  0.40950  0.70096  1.0000
  C   C16       1.0  0.51268  0.59080  0.29896  1.0000
  C   C17       1.0  0.88836  0.60747  0.74040  1.0000
  C   C18       1.0  0.23612  0.39230  0.25958  1.0000
  C   C19       1.0  0.37840  0.10755  0.75961  1.0000
  C   C20       1.0  0.24552  0.89249  0.24048  1.0000
  C   C21       1.0  0.87715  0.48655  0.76334  1.0000
  C   C22       1.0  0.12663  0.51314  0.23645  1.0000
  C   C23       1.0  0.39021  0.98663  0.73659  1.0000
  C   C24       1.0  0.11298  0.01337  0.26362  1.0000
  C   C25       1.0  0.82462  0.44717  0.85879  1.0000
  C   C26       1.0  0.13032  0.55251  0.14104  1.0000
  C   C27       1.0  0.43331  0.94721  0.64114  1.0000
  C   C28       1.0  0.02108  0.05274  0.35904  1.0000
  C   C29       1.0  0.81855  0.33000  0.87432  1.0000
  C   C30       1.0  0.02288  0.66960  0.12559  1.0000
  C   C31       1.0  0.44261  0.83008  0.62556  1.0000
  C   C32       1.0  0.89819  0.16986  0.37455  1.0000
  C   C33       1.0  0.86191  0.25636  0.79484  1.0000
  C   C34       1.0  0.91321  0.74313  0.20509  1.0000
  C   C35       1.0  0.40652  0.75641  0.70500  1.0000
  C   C36       1.0  0.86813  0.24337  0.29507  1.0000
  C   C37       1.0  0.91576  0.30284  0.70204  1.0000
  C   C38       1.0  0.92036  0.69663  0.29782  1.0000
  C   C39       1.0  0.36757  0.80290  0.79781  1.0000
  C   C40       1.0  0.96826  0.19687  0.20232  1.0000
  N   N1        1.0  0.94743  0.64440  0.64979  1.0000
  N   N2        1.0  0.24175  0.35573  0.35013  1.0000
  N   N3        1.0  0.34688  0.14449  0.85020  1.0000
  N   N4        1.0  0.34178  0.85589  0.14991  1.0000
  N   N5        1.0  0.84484  0.69763  0.80443  1.0000
  N   N6        1.0  0.34698  0.30225  0.19559  1.0000
  N   N7        1.0  0.39889  0.19771  0.69560  1.0000
  N   N8        1.0  0.29228  0.80241  0.30442  1.0000
  N   N9        1.0  0.92567  0.41464  0.68553  1.0000
  N   N10       1.0  0.02540  0.58487  0.31425  1.0000
  N   N11       1.0  0.36099  0.91471  0.81439  1.0000
  N   N12       1.0  0.08971  0.08509  0.18585  1.0000
  O   O1        1.0  0.05618  0.77248  0.48576  1.0000
  O   O2        1.0  0.31408  0.22766  0.51424  1.0000
  O   O3        1.0  0.29173  0.27265  0.01426  1.0000
  O   O4        1.0  0.57821  0.72780  0.98570  1.0000
  O   O5        1.0  0.99435  0.93680  0.57213  1.0000
  O   O6        1.0  0.50244  0.06349  0.42788  1.0000
  O   O7        1.0  0.31620  0.43690  0.92792  1.0000
  O   O8        1.0  0.68041  0.56367  0.07199  1.0000
  O   O9        1.0  0.88846  0.99505  0.74243  1.0000
  O   O10       1.0  0.62689  0.00534  0.25753  1.0000
  O   O11       1.0  0.38052  0.49516  0.75765  1.0000
  O   O12       1.0  0.63365  0.50540  0.24226  1.0000
  O   O13       1.0  0.80400  0.91539  0.89043  1.0000
  O   O14       1.0  0.60980  0.08477  0.10960  1.0000
  O   O15       1.0  0.44407  0.41549  0.60963  1.0000
  O   O16       1.0  0.46910  0.58485  0.39029  1.0000
  O   O17       1.0  0.75261  0.50018  0.49995  1.0000
  O   O18       1.0  0.00282  0.99962  0.00019  1.0000
