data_image0
_chemical_formula_structural       CoH24C18N8O4
_chemical_formula_sum              "Co1 H24 C18 N8 O4"
_cell_length_a       7.88175
_cell_length_b       8.05308
_cell_length_c       9.30355
_cell_angle_alpha    95.8124
_cell_angle_beta     112.341
_cell_angle_gamma    107.932

_space_group_name_H-M_alt    "P 1"
_space_group_IT_number       1

loop_
  _space_group_symop_operation_xyz
  'x, y, z'

loop_
  _atom_site_type_symbol
  _atom_site_label
  _atom_site_symmetry_multiplicity
  _atom_site_fract_x
  _atom_site_fract_y
  _atom_site_fract_z
  _atom_site_occupancy
  Co  Co1       1.0  0.00000  1.00000  0.00000  1.0000
  H   H1        1.0  0.22912  0.56946  0.51301  1.0000
  H   H2        1.0  0.77088  0.43054  0.48698  1.0000
  H   H3        1.0  0.20196  0.61707  0.32694  1.0000
  H   H4        1.0  0.79804  0.38293  0.67306  1.0000
  H   H5        1.0  0.55500  0.70122  0.50352  1.0000
  H   H6        1.0  0.44500  0.29878  0.49648  1.0000
  H   H7        1.0  0.47671  0.52701  0.33371  1.0000
  H   H8        1.0  0.52330  0.47299  0.66629  1.0000
  H   H9        1.0  0.27247  0.88591  0.74395  1.0000
  H   H10       1.0  0.72753  0.11408  0.25605  1.0000
  H   H11       1.0  0.03664  0.27970  0.54836  1.0000
  H   H12       1.0  0.96335  0.72031  0.45164  1.0000
  H   H13       1.0  0.54153  0.75038  0.82105  1.0000
  H   H14       1.0  0.45848  0.24961  0.17895  1.0000
  H   H15       1.0  0.43235  0.23288  0.81338  1.0000
  H   H16       1.0  0.56764  0.76711  0.18661  1.0000
  H   H17       1.0  0.83946  0.31374  0.95802  1.0000
  H   H18       1.0  0.16053  0.68626  0.04198  1.0000
  H   H19       1.0  0.91493  0.99059  0.63730  1.0000
  H   H20       1.0  0.08507  0.00942  0.36270  1.0000
  H   H21       1.0  0.25940  0.54923  0.79476  1.0000
  H   H22       1.0  0.74059  0.45077  0.20524  1.0000
  H   H23       1.0  0.26737  0.40811  0.05876  1.0000
  H   H24       1.0  0.73263  0.59188  0.94124  1.0000
  C   C1        1.0  0.56820  0.89254  0.83934  1.0000
  C   C2        1.0  0.43180  0.10744  0.16066  1.0000
  C   C3        1.0  0.51610  0.14633  0.83532  1.0000
  C   C4        1.0  0.48390  0.85367  0.16469  1.0000
  C   C5        1.0  0.71660  0.18490  0.90698  1.0000
  C   C6        1.0  0.28341  0.81509  0.09302  1.0000
  C   C7        1.0  0.01152  0.12226  0.71712  1.0000
  C   C8        1.0  0.98847  0.87774  0.28289  1.0000
  C   C9        1.0  0.19660  0.41279  0.80288  1.0000
  C   C10       1.0  0.80342  0.58721  0.19712  1.0000
  C   C11       1.0  0.19837  0.34294  0.93219  1.0000
  C   C12       1.0  0.80165  0.65707  0.06782  1.0000
  C   C13       1.0  0.10205  0.33682  0.31382  1.0000
  C   C14       1.0  0.89795  0.66318  0.68617  1.0000
  C   C15       1.0  0.24725  0.52952  0.40483  1.0000
  C   C16       1.0  0.75274  0.47048  0.59517  1.0000
  C   C17       1.0  0.46211  0.55779  0.44549  1.0000
  C   C18       1.0  0.53788  0.44221  0.55450  1.0000
  N   N1        1.0  0.74717  0.02460  0.90957  1.0000
  N   N2        1.0  0.25284  0.97541  0.09044  1.0000
  N   N3        1.0  0.42498  0.96151  0.79344  1.0000
  N   N4        1.0  0.57502  0.03848  0.20655  1.0000
  N   N5        1.0  0.08198  0.16078  0.87700  1.0000
  N   N6        1.0  0.91802  0.83922  0.12300  1.0000
  N   N7        1.0  0.07901  0.27167  0.66871  1.0000
  N   N8        1.0  0.92099  0.72833  0.33130  1.0000
  O   O1        1.0  0.12787  0.25883  0.20412  1.0000
  O   O2        1.0  0.87212  0.74117  0.79588  1.0000
  O   O3        1.0  0.96190  0.26758  0.35528  1.0000
  O   O4        1.0  0.03811  0.73243  0.64473  1.0000
