data_image0
_chemical_formula_structural       Cu2H28C32N12Cl4
_chemical_formula_sum              "Cu2 H28 C32 N12 Cl4"
_cell_length_a       7.9989
_cell_length_b       9.03154
_cell_length_c       12.5
_cell_angle_alpha    69.6226
_cell_angle_beta     79.463
_cell_angle_gamma    89.3438

_space_group_name_H-M_alt    "P 1"
_space_group_IT_number       1

loop_
  _space_group_symop_operation_xyz
  'x, y, z'

loop_
  _atom_site_type_symbol
  _atom_site_label
  _atom_site_symmetry_multiplicity
  _atom_site_fract_x
  _atom_site_fract_y
  _atom_site_fract_z
  _atom_site_occupancy
  Cu  Cu1       1.0  0.00000  0.00000  0.50000  1.0000
  Cu  Cu2       1.0  0.50000  0.50000  0.50000  1.0000
  H   H1        1.0  0.67532  0.75640  0.54405  1.0000
  H   H2        1.0  0.32471  0.24360  0.45594  1.0000
  H   H3        1.0  0.81261  0.20709  0.29065  1.0000
  H   H4        1.0  0.18738  0.79292  0.70935  1.0000
  H   H5        1.0  0.45083  0.21285  0.24752  1.0000
  H   H6        1.0  0.54917  0.78715  0.75248  1.0000
  H   H7        1.0  0.41350  0.02677  0.23683  1.0000
  H   H8        1.0  0.58650  0.97322  0.76317  1.0000
  H   H9        1.0  0.63480  0.40958  0.10347  1.0000
  H   H10       1.0  0.36519  0.59041  0.89653  1.0000
  H   H11       1.0  0.83599  0.50865  0.91231  1.0000
  H   H12       1.0  0.16401  0.49135  0.08770  1.0000
  H   H13       1.0  0.56312  0.84781  0.19338  1.0000
  H   H14       1.0  0.43688  0.15218  0.80662  1.0000
  H   H15       1.0  0.66663  0.66672  0.09343  1.0000
  H   H16       1.0  0.33338  0.33327  0.90657  1.0000
  H   H17       1.0  0.85677  0.76914  0.89545  1.0000
  H   H18       1.0  0.14323  0.23086  0.10454  1.0000
  H   H19       1.0  0.94326  0.04920  0.80371  1.0000
  H   H20       1.0  0.05674  0.95080  0.19629  1.0000
  H   H21       1.0  0.03086  0.46354  0.76562  1.0000
  H   H22       1.0  0.96913  0.53646  0.23438  1.0000
  H   H23       1.0  0.08173  0.27088  0.77029  1.0000
  H   H24       1.0  0.91827  0.72913  0.22971  1.0000
  H   H25       1.0  0.66518  0.48420  0.72257  1.0000
  H   H26       1.0  0.33481  0.51580  0.27744  1.0000
  H   H27       1.0  0.84717  0.32177  0.44808  1.0000
  H   H28       1.0  0.15283  0.67823  0.55192  1.0000
  C   C1        1.0  0.67485  0.86328  0.46992  1.0000
  C   C2        1.0  0.32517  0.13672  0.53007  1.0000
  C   C3        1.0  0.74836  0.09313  0.34201  1.0000
  C   C4        1.0  0.25165  0.90688  0.65799  1.0000
  C   C5        1.0  0.51383  0.11317  0.22957  1.0000
  C   C6        1.0  0.48617  0.88682  0.77043  1.0000
  C   C7        1.0  0.63054  0.16888  0.11237  1.0000
  C   C8        1.0  0.36946  0.83111  0.88763  1.0000
  C   C9        1.0  0.68179  0.32730  0.05985  1.0000
  C   C10       1.0  0.31820  0.67270  0.94015  1.0000
  C   C11       1.0  0.79560  0.38325  0.95186  1.0000
  C   C12       1.0  0.20440  0.61675  0.04814  1.0000
  C   C13       1.0  0.85661  0.28149  0.89488  1.0000
  C   C14       1.0  0.14340  0.71851  0.10512  1.0000
  C   C15       1.0  0.80426  0.11703  0.94524  1.0000
  C   C16       1.0  0.19574  0.88297  0.05476  1.0000
  C   C17       1.0  0.69178  0.05934  0.05673  1.0000
  C   C18       1.0  0.30822  0.94066  0.94327  1.0000
  C   C19       1.0  0.64529  0.89502  0.10788  1.0000
  C   C20       1.0  0.35471  0.10498  0.89212  1.0000
  C   C21       1.0  0.70390  0.79233  0.05135  1.0000
  C   C22       1.0  0.29610  0.20767  0.94865  1.0000
  C   C23       1.0  0.81158  0.84930  0.94117  1.0000
  C   C24       1.0  0.18842  0.15070  0.05883  1.0000
  C   C25       1.0  0.86057  0.00809  0.88921  1.0000
  C   C26       1.0  0.13943  0.99191  0.11079  1.0000
  C   C27       1.0  0.97573  0.34627  0.77906  1.0000
  C   C28       1.0  0.02427  0.65374  0.22094  1.0000
  C   C29       1.0  0.74123  0.43171  0.66578  1.0000
  C   C30       1.0  0.25876  0.56829  0.33422  1.0000
  C   C31       1.0  0.83624  0.34649  0.52767  1.0000
  C   C32       1.0  0.16376  0.65351  0.47233  1.0000
  N   N1        1.0  0.79472  0.98612  0.43538  1.0000
  N   N2        1.0  0.20529  0.01389  0.56462  1.0000
  N   N3        1.0  0.55885  0.88899  0.40311  1.0000
  N   N4        1.0  0.44116  0.11100  0.59689  1.0000
  N   N5        1.0  0.60818  0.03572  0.32251  1.0000
  N   N6        1.0  0.39182  0.96428  0.67749  1.0000
  N   N7        1.0  0.88678  0.36142  0.68344  1.0000
  N   N8        1.0  0.11321  0.63858  0.31656  1.0000
  N   N9        1.0  0.94975  0.30585  0.59649  1.0000
  N   N10       1.0  0.05024  0.69415  0.40351  1.0000
  N   N11       1.0  0.70490  0.42422  0.56714  1.0000
  N   N12       1.0  0.29509  0.57578  0.43286  1.0000
  Cl  Cl1       1.0  0.89090  0.78744  0.66701  1.0000
  Cl  Cl2       1.0  0.10910  0.21257  0.33299  1.0000
  Cl  Cl3       1.0  0.62071  0.45817  0.33043  1.0000
  Cl  Cl4       1.0  0.37928  0.54183  0.66958  1.0000
