data_image0
_chemical_formula_structural       Ag4H16C36N4Cl8O8
_chemical_formula_sum              "Ag4 H16 C36 N4 Cl8 O8"
_cell_length_a       9.70266
_cell_length_b       9.70266
_cell_length_c       11.0237
_cell_angle_alpha    83.0986
_cell_angle_beta     83.0983
_cell_angle_gamma    89.5806

_space_group_name_H-M_alt    "P 1"
_space_group_IT_number       1

loop_
  _space_group_symop_operation_xyz
  'x, y, z'

loop_
  _atom_site_type_symbol
  _atom_site_label
  _atom_site_symmetry_multiplicity
  _atom_site_fract_x
  _atom_site_fract_y
  _atom_site_fract_z
  _atom_site_occupancy
  Ag  Ag1       1.0  0.39968  0.51616  0.64333  1.0000
  Ag  Ag2       1.0  0.48384  0.60032  0.85667  1.0000
  Ag  Ag3       1.0  0.60033  0.48385  0.35668  1.0000
  Ag  Ag4       1.0  0.51616  0.39968  0.14333  1.0000
  H   H1        1.0  0.02354  0.85796  0.84181  1.0000
  H   H2        1.0  0.14204  0.97646  0.65819  1.0000
  H   H3        1.0  0.97646  0.14205  0.15818  1.0000
  H   H4        1.0  0.85796  0.02355  0.34181  1.0000
  H   H5        1.0  0.84218  0.67192  0.90680  1.0000
  H   H6        1.0  0.32808  0.15782  0.59321  1.0000
  H   H7        1.0  0.15782  0.32808  0.09320  1.0000
  H   H8        1.0  0.67192  0.84219  0.40680  1.0000
  H   H9        1.0  0.90234  0.42812  0.87333  1.0000
  H   H10       1.0  0.57188  0.09766  0.62668  1.0000
  H   H11       1.0  0.09767  0.57187  0.12668  1.0000
  H   H12       1.0  0.42812  0.90233  0.37332  1.0000
  H   H13       1.0  0.14249  0.37756  0.77599  1.0000
  H   H14       1.0  0.62243  0.85751  0.72401  1.0000
  H   H15       1.0  0.85752  0.62244  0.22401  1.0000
  H   H16       1.0  0.37756  0.14248  0.27599  1.0000
  C   C1        1.0  0.17603  0.71545  0.77085  1.0000
  C   C2        1.0  0.28455  0.82397  0.72915  1.0000
  C   C3        1.0  0.82397  0.28455  0.22914  1.0000
  C   C4        1.0  0.71545  0.17603  0.27085  1.0000
  C   C5        1.0  0.04527  0.75059  0.82694  1.0000
  C   C6        1.0  0.24940  0.95473  0.67306  1.0000
  C   C7        1.0  0.95473  0.24941  0.17305  1.0000
  C   C8        1.0  0.75060  0.04527  0.32694  1.0000
  C   C9        1.0  0.94515  0.64738  0.86428  1.0000
  C   C10       1.0  0.35262  0.05485  0.63573  1.0000
  C   C11       1.0  0.05485  0.35262  0.13572  1.0000
  C   C12       1.0  0.64738  0.94515  0.36427  1.0000
  C   C13       1.0  0.97878  0.51079  0.84647  1.0000
  C   C14       1.0  0.48921  0.02123  0.65353  1.0000
  C   C15       1.0  0.02123  0.48921  0.15353  1.0000
  C   C16       1.0  0.51080  0.97877  0.34647  1.0000
  C   C17       1.0  0.11066  0.48282  0.79148  1.0000
  C   C18       1.0  0.51718  0.88934  0.70852  1.0000
  C   C19       1.0  0.88934  0.51718  0.20852  1.0000
  C   C20       1.0  0.48282  0.11066  0.29147  1.0000
  C   C21       1.0  0.44472  0.28046  0.88322  1.0000
  C   C22       1.0  0.71955  0.55526  0.61679  1.0000
  C   C23       1.0  0.55527  0.71955  0.11678  1.0000
  C   C24       1.0  0.28045  0.44473  0.38322  1.0000
  C   C25       1.0  0.47228  0.13598  0.94604  1.0000
  C   C26       1.0  0.86403  0.52771  0.55398  1.0000
  C   C27       1.0  0.52771  0.86403  0.05397  1.0000
  C   C28       1.0  0.13597  0.47229  0.44602  1.0000
  C   C29       1.0  0.36453  0.03936  0.98309  1.0000
  C   C30       1.0  0.96065  0.63546  0.51692  1.0000
  C   C31       1.0  0.63546  0.96065  0.01691  1.0000
  C   C32       1.0  0.03935  0.36453  0.48308  1.0000
  C   C33       1.0  0.39192  0.90476  0.03639  1.0000
  C   C34       1.0  0.09524  0.60807  0.46361  1.0000
  C   C35       1.0  0.60807  0.09524  0.96361  1.0000
  C   C36       1.0  0.90476  0.39192  0.53639  1.0000
  N   N1        1.0  0.20688  0.58288  0.75308  1.0000
  N   N2        1.0  0.41712  0.79313  0.74692  1.0000
  N   N3        1.0  0.79312  0.41712  0.24691  1.0000
  N   N4        1.0  0.58288  0.20688  0.25308  1.0000
  Cl  Cl1       1.0  0.19637  0.08754  0.96215  1.0000
  Cl  Cl2       1.0  0.91246  0.80362  0.53786  1.0000
  Cl  Cl3       1.0  0.80362  0.91246  0.03785  1.0000
  Cl  Cl4       1.0  0.08754  0.19638  0.46214  1.0000
  Cl  Cl5       1.0  0.25834  0.78682  0.08164  1.0000
  Cl  Cl6       1.0  0.21317  0.74165  0.41836  1.0000
  Cl  Cl7       1.0  0.74165  0.21318  0.91836  1.0000
  Cl  Cl8       1.0  0.78683  0.25834  0.58164  1.0000
  O   O1        1.0  0.43702  0.29088  0.77005  1.0000
  O   O2        1.0  0.70913  0.56297  0.72999  1.0000
  O   O3        1.0  0.56298  0.70913  0.22995  1.0000
  O   O4        1.0  0.29087  0.43702  0.27002  1.0000
  O   O5        1.0  0.43287  0.37787  0.95239  1.0000
  O   O6        1.0  0.62215  0.56711  0.54764  1.0000
  O   O7        1.0  0.56712  0.62214  0.04761  1.0000
  O   O8        1.0  0.37786  0.43289  0.45237  1.0000
