data_image0
_chemical_formula_structural       Cd4H20C20I4N24O4
_chemical_formula_sum              "Cd4 H20 C20 I4 N24 O4"
_cell_length_a       7.86771
_cell_length_b       9.33249
_cell_length_c       13.9649
_cell_angle_alpha    90
_cell_angle_beta     89.9998
_cell_angle_gamma    94.7562

_space_group_name_H-M_alt    "P 1"
_space_group_IT_number       1

loop_
  _space_group_symop_operation_xyz
  'x, y, z'

loop_
  _atom_site_type_symbol
  _atom_site_label
  _atom_site_symmetry_multiplicity
  _atom_site_fract_x
  _atom_site_fract_y
  _atom_site_fract_z
  _atom_site_occupancy
  Cd  Cd1       1.0  0.77572  0.07602  0.54592  1.0000
  Cd  Cd2       1.0  0.72428  0.42398  0.04592  1.0000
  Cd  Cd3       1.0  0.22428  0.92398  0.45408  1.0000
  Cd  Cd4       1.0  0.27572  0.57601  0.95408  1.0000
  H   H1        1.0  0.67357  0.35946  0.53361  1.0000
  H   H2        1.0  0.82644  0.14054  0.03361  1.0000
  H   H3        1.0  0.32644  0.64054  0.46639  1.0000
  H   H4        1.0  0.17357  0.85946  0.96640  1.0000
  H   H5        1.0  0.76052  0.35143  0.63806  1.0000
  H   H6        1.0  0.73948  0.14857  0.13806  1.0000
  H   H7        1.0  0.23948  0.64857  0.36194  1.0000
  H   H8        1.0  0.26052  0.85143  0.86194  1.0000
  H   H9        1.0  0.91648  0.88241  0.28081  1.0000
  H   H10       1.0  0.58352  0.61759  0.78081  1.0000
  H   H11       1.0  0.08352  0.11759  0.71919  1.0000
  H   H12       1.0  0.41648  0.38240  0.21919  1.0000
  H   H13       1.0  0.90243  0.87293  0.09879  1.0000
  H   H14       1.0  0.59757  0.62708  0.59880  1.0000
  H   H15       1.0  0.09757  0.12708  0.90120  1.0000
  H   H16       1.0  0.40243  0.37292  0.40121  1.0000
  H   H17       1.0  0.42424  0.98422  0.08559  1.0000
  H   H18       1.0  0.07577  0.51577  0.58558  1.0000
  H   H19       1.0  0.57576  0.01577  0.91442  1.0000
  H   H20       1.0  0.92424  0.48422  0.41441  1.0000
  C   C1        1.0  0.47239  0.02230  0.27991  1.0000
  C   C2        1.0  0.02761  0.47771  0.77991  1.0000
  C   C3        1.0  0.52761  0.97771  0.72009  1.0000
  C   C4        1.0  0.97239  0.52230  0.22009  1.0000
  C   C5        1.0  0.31622  0.97685  0.22861  1.0000
  C   C6        1.0  0.18378  0.52316  0.72861  1.0000
  C   C7        1.0  0.68378  0.02316  0.77139  1.0000
  C   C8        1.0  0.81622  0.47684  0.27139  1.0000
  C   C9        1.0  0.02878  0.90776  0.23635  1.0000
  C   C10       1.0  0.47122  0.59225  0.73635  1.0000
  C   C11       1.0  0.97122  0.09225  0.76365  1.0000
  C   C12       1.0  0.52878  0.40775  0.26365  1.0000
  C   C13       1.0  0.02189  0.90197  0.13649  1.0000
  C   C14       1.0  0.47811  0.59803  0.63649  1.0000
  C   C15       1.0  0.97811  0.09803  0.86351  1.0000
  C   C16       1.0  0.52189  0.40197  0.36351  1.0000
  C   C17       1.0  0.30926  0.96536  0.12866  1.0000
  C   C18       1.0  0.19074  0.53465  0.62865  1.0000
  C   C19       1.0  0.69074  0.03465  0.87134  1.0000
  C   C20       1.0  0.80926  0.46536  0.37134  1.0000
  I   I1        1.0  0.89178  0.78723  0.50734  1.0000
  I   I2        1.0  0.60821  0.71276  0.00734  1.0000
  I   I3        1.0  0.10822  0.21276  0.49267  1.0000
  I   I4        1.0  0.39179  0.28723  0.99266  1.0000
  N   N1        1.0  0.64161  0.07231  0.39591  1.0000
  N   N2        1.0  0.85839  0.42769  0.89590  1.0000
  N   N3        1.0  0.35839  0.92769  0.60410  1.0000
  N   N4        1.0  0.14161  0.57231  0.10410  1.0000
  N   N5        1.0  0.48184  0.02134  0.37594  1.0000
  N   N6        1.0  0.01816  0.47866  0.87594  1.0000
  N   N7        1.0  0.51816  0.97866  0.62406  1.0000
  N   N8        1.0  0.98183  0.52134  0.12406  1.0000
  N   N9        1.0  0.62300  0.07303  0.24146  1.0000
  N   N10       1.0  0.87700  0.42697  0.74146  1.0000
  N   N11       1.0  0.37700  0.92697  0.75855  1.0000
  N   N12       1.0  0.12299  0.57303  0.25855  1.0000
  N   N13       1.0  0.72706  0.10360  0.31581  1.0000
  N   N14       1.0  0.77294  0.39640  0.81581  1.0000
  N   N15       1.0  0.27294  0.89640  0.68419  1.0000
  N   N16       1.0  0.22706  0.60360  0.18419  1.0000
  N   N17       1.0  0.17525  0.94461  0.28179  1.0000
  N   N18       1.0  0.32475  0.55539  0.78179  1.0000
  N   N19       1.0  0.82475  0.05539  0.71821  1.0000
  N   N20       1.0  0.67525  0.44461  0.21821  1.0000
  N   N21       1.0  0.16282  0.92820  0.08330  1.0000
  N   N22       1.0  0.33719  0.57180  0.58330  1.0000
  N   N23       1.0  0.83719  0.07180  0.91670  1.0000
  N   N24       1.0  0.66282  0.42820  0.41670  1.0000
  O   O1        1.0  0.68164  0.29814  0.59209  1.0000
  O   O2        1.0  0.81837  0.20186  0.09209  1.0000
  O   O3        1.0  0.31837  0.70186  0.40790  1.0000
  O   O4        1.0  0.18164  0.79814  0.90791  1.0000
