data_image0
_chemical_formula_structural       H20Pb2C24S4O8
_chemical_formula_sum              "H20 Pb2 C24 S4 O8"
_cell_length_a       7.9734
_cell_length_b       10.0308
_cell_length_c       10.0307
_cell_angle_alpha    58.5669
_cell_angle_beta     74.9891
_cell_angle_gamma    74.989

_space_group_name_H-M_alt    "P 1"
_space_group_IT_number       1

loop_
  _space_group_symop_operation_xyz
  'x, y, z'

loop_
  _atom_site_type_symbol
  _atom_site_label
  _atom_site_symmetry_multiplicity
  _atom_site_fract_x
  _atom_site_fract_y
  _atom_site_fract_z
  _atom_site_occupancy
  H   H1        1.0  0.51208  0.34791  0.74680  1.0000
  H   H2        1.0  0.98792  0.25321  0.65209  1.0000
  H   H3        1.0  0.48793  0.65209  0.25320  1.0000
  H   H4        1.0  0.01208  0.74680  0.34791  1.0000
  H   H5        1.0  0.18787  0.52519  0.13229  1.0000
  H   H6        1.0  0.31212  0.86772  0.47481  1.0000
  H   H7        1.0  0.81212  0.47480  0.86771  1.0000
  H   H8        1.0  0.68787  0.13229  0.52519  1.0000
  H   H9        1.0  0.00336  0.63360  0.03735  1.0000
  H   H10       1.0  0.49663  0.96265  0.36640  1.0000
  H   H11       1.0  0.99663  0.36640  0.96265  1.0000
  H   H12       1.0  0.50337  0.03735  0.63360  1.0000
  H   H13       1.0  0.44389  0.38326  0.99983  1.0000
  H   H14       1.0  0.05610  0.00018  0.61674  1.0000
  H   H15       1.0  0.55609  0.61673  0.00019  1.0000
  H   H16       1.0  0.94391  0.99982  0.38326  1.0000
  H   H17       1.0  0.03429  0.72432  0.72326  1.0000
  H   H18       1.0  0.46572  0.27674  0.27568  1.0000
  H   H19       1.0  0.96572  0.27568  0.27673  1.0000
  H   H20       1.0  0.53428  0.72327  0.72431  1.0000
  Pb  Pb1       1.0  0.25000  0.08373  0.91626  1.0000
  Pb  Pb2       1.0  0.75000  0.91626  0.08374  1.0000
  C   C1        1.0  0.40682  0.42937  0.77173  1.0000
  C   C2        1.0  0.09318  0.22829  0.57063  1.0000
  C   C3        1.0  0.59318  0.57062  0.22828  1.0000
  C   C4        1.0  0.90683  0.77172  0.42937  1.0000
  C   C5        1.0  0.19930  0.77013  0.98506  1.0000
  C   C6        1.0  0.30069  0.01494  0.22987  1.0000
  C   C7        1.0  0.80070  0.22987  0.01494  1.0000
  C   C8        1.0  0.69930  0.98506  0.77013  1.0000
  C   C9        1.0  0.14734  0.61908  0.01809  1.0000
  C   C10       1.0  0.35266  0.98191  0.38092  1.0000
  C   C11       1.0  0.85266  0.38091  0.98191  1.0000
  C   C12       1.0  0.64734  0.01809  0.61908  1.0000
  C   C13       1.0  0.22162  0.57093  0.89335  1.0000
  C   C14       1.0  0.27838  0.10665  0.42907  1.0000
  C   C15       1.0  0.77838  0.42907  0.10665  1.0000
  C   C16       1.0  0.72163  0.89335  0.57093  1.0000
  C   C17       1.0  0.36917  0.45173  0.90150  1.0000
  C   C18       1.0  0.13082  0.09851  0.54826  1.0000
  C   C19       1.0  0.63082  0.54826  0.09850  1.0000
  C   C20       1.0  0.86918  0.90150  0.45173  1.0000
  C   C21       1.0  0.15031  0.63571  0.75675  1.0000
  C   C22       1.0  0.34969  0.24325  0.36429  1.0000
  C   C23       1.0  0.84969  0.36429  0.24325  1.0000
  C   C24       1.0  0.65031  0.75675  0.63571  1.0000
  S   S1        1.0  0.26141  0.55317  0.64033  1.0000
  S   S2        1.0  0.23860  0.35967  0.44683  1.0000
  S   S3        1.0  0.73860  0.44683  0.35967  1.0000
  S   S4        1.0  0.76141  0.64033  0.55316  1.0000
  O   O1        1.0  0.10116  0.84011  0.06254  1.0000
  O   O2        1.0  0.39884  0.93745  0.15990  1.0000
  O   O3        1.0  0.89884  0.15990  0.93745  1.0000
  O   O4        1.0  0.60116  0.06255  0.84010  1.0000
  O   O5        1.0  0.33370  0.82397  0.88854  1.0000
  O   O6        1.0  0.16630  0.11146  0.17602  1.0000
  O   O7        1.0  0.66631  0.17601  0.11146  1.0000
  O   O8        1.0  0.83369  0.88854  0.82398  1.0000
