data_image0
_chemical_formula_structural       CoH16C8S2N2Cl2O2
_chemical_formula_sum              "Co1 H16 C8 S2 N2 Cl2 O2"
_cell_length_a       6.75414
_cell_length_b       6.81004
_cell_length_c       8.87674
_cell_angle_alpha    87.9631
_cell_angle_beta     83.5273
_cell_angle_gamma    58.4434

_space_group_name_H-M_alt    "P 1"
_space_group_IT_number       1

loop_
  _space_group_symop_operation_xyz
  'x, y, z'

loop_
  _atom_site_type_symbol
  _atom_site_label
  _atom_site_symmetry_multiplicity
  _atom_site_fract_x
  _atom_site_fract_y
  _atom_site_fract_z
  _atom_site_occupancy
  Co  Co1       1.0  0.99995  0.00008  0.00004  1.0000
  H   H1        1.0  0.48676  0.86026  0.02554  1.0000
  H   H2        1.0  0.51314  0.13994  0.97435  1.0000
  H   H3        1.0  0.13828  0.51712  0.97251  1.0000
  H   H4        1.0  0.86163  0.48309  0.02752  1.0000
  H   H5        1.0  0.41621  0.23589  0.31067  1.0000
  H   H6        1.0  0.58363  0.76421  0.68931  1.0000
  H   H7        1.0  0.22652  0.33513  0.48768  1.0000
  H   H8        1.0  0.77363  0.66476  0.51243  1.0000
  H   H9        1.0  0.13437  0.50361  0.31985  1.0000
  H   H10       1.0  0.86536  0.49636  0.68033  1.0000
  H   H11       1.0  0.24865  0.78295  0.35417  1.0000
  H   H12       1.0  0.75163  0.21680  0.64556  1.0000
  H   H13       1.0  0.28186  0.92194  0.51003  1.0000
  H   H14       1.0  0.71873  0.07737  0.48982  1.0000
  H   H15       1.0  0.47665  0.85078  0.33444  1.0000
  H   H16       1.0  0.52350  0.14912  0.66526  1.0000
  C   C1        1.0  0.49199  0.69980  0.01334  1.0000
  C   C2        1.0  0.50789  0.30041  0.98664  1.0000
  C   C3        1.0  0.29948  0.50988  0.98567  1.0000
  C   C4        1.0  0.70041  0.49034  0.01434  1.0000
  C   C5        1.0  0.23448  0.32904  0.36371  1.0000
  C   C6        1.0  0.76544  0.67092  0.63641  1.0000
  C   C7        1.0  0.29979  0.90288  0.38592  1.0000
  C   C8        1.0  0.70050  0.09681  0.61392  1.0000
  S   S1        1.0  0.09536  0.17952  0.31474  1.0000
  S   S2        1.0  0.90461  0.82037  0.68546  1.0000
  N   N1        1.0  0.28838  0.71256  0.99931  1.0000
  N   N2        1.0  0.71155  0.28761  0.00071  1.0000
  Cl  Cl1       1.0  0.15502  0.10762  0.79155  1.0000
  Cl  Cl2       1.0  0.84498  0.89255  0.20858  1.0000
  O   O1        1.0  0.13973  0.15783  0.14172  1.0000
  O   O2        1.0  0.85989  0.84245  0.85846  1.0000
