data_image0
_chemical_formula_structural       MnH16C8S2N2Cl2O2
_chemical_formula_sum              "Mn1 H16 C8 S2 N2 Cl2 O2"
_cell_length_a       6.74082
_cell_length_b       6.76088
_cell_length_c       8.814
_cell_angle_alpha    86.6375
_cell_angle_beta     83.9559
_cell_angle_gamma    65.4012

_space_group_name_H-M_alt    "P 1"
_space_group_IT_number       1

loop_
  _space_group_symop_operation_xyz
  'x, y, z'

loop_
  _atom_site_type_symbol
  _atom_site_label
  _atom_site_symmetry_multiplicity
  _atom_site_fract_x
  _atom_site_fract_y
  _atom_site_fract_z
  _atom_site_occupancy
  Mn  Mn1       1.0  0.49999  0.00001  0.50000  1.0000
  H   H1        1.0  0.34251  0.50369  0.55899  1.0000
  H   H2        1.0  0.65748  0.49629  0.44101  1.0000
  H   H3        1.0  0.99870  0.15215  0.44653  1.0000
  H   H4        1.0  0.00132  0.84783  0.55346  1.0000
  H   H5        1.0  0.03999  0.11973  0.16046  1.0000
  H   H6        1.0  0.96002  0.88028  0.83954  1.0000
  H   H7        1.0  0.21835  0.06885  0.98366  1.0000
  H   H8        1.0  0.78166  0.93115  0.01634  1.0000
  H   H9        1.0  0.26293  0.20722  0.13655  1.0000
  H   H10       1.0  0.73708  0.79277  0.86346  1.0000
  H   H11       1.0  0.34935  0.50274  0.18265  1.0000
  H   H12       1.0  0.65065  0.49727  0.81736  1.0000
  H   H13       1.0  0.26336  0.66397  0.01146  1.0000
  H   H14       1.0  0.73664  0.33604  0.98854  1.0000
  H   H15       1.0  0.08613  0.73797  0.18749  1.0000
  H   H16       1.0  0.91387  0.26204  0.81252  1.0000
  C   C1        1.0  0.18955  0.50123  0.53255  1.0000
  C   C2        1.0  0.81043  0.49877  0.46744  1.0000
  C   C3        1.0  0.99997  0.30742  0.47082  1.0000
  C   C4        1.0  0.00001  0.69257  0.52917  1.0000
  C   C5        1.0  0.20611  0.08509  0.10807  1.0000
  C   C6        1.0  0.79389  0.91491  0.89193  1.0000
  C   C7        1.0  0.25621  0.66653  0.13651  1.0000
  C   C8        1.0  0.74379  0.33348  0.86349  1.0000
  S   S1        1.0  0.39335  0.83042  0.18216  1.0000
  S   S2        1.0  0.60665  0.16958  0.81784  1.0000
  N   N1        1.0  0.18994  0.30834  0.50319  1.0000
  N   N2        1.0  0.81005  0.69167  0.49680  1.0000
  Cl  Cl1       1.0  0.34393  0.85961  0.72883  1.0000
  Cl  Cl2       1.0  0.65608  0.14039  0.27117  1.0000
  O   O1        1.0  0.35612  0.84774  0.35673  1.0000
  O   O2        1.0  0.64389  0.15225  0.64328  1.0000
