data_image0
_chemical_formula_structural       FeH16C8S2N2Cl2O2
_chemical_formula_sum              "Fe1 H16 C8 S2 N2 Cl2 O2"
_cell_length_a       6.84226
_cell_length_b       6.9429
_cell_length_c       8.67578
_cell_angle_alpha    85.8876
_cell_angle_beta     83.3845
_cell_angle_gamma    58.484

_space_group_name_H-M_alt    "P 1"
_space_group_IT_number       1

loop_
  _space_group_symop_operation_xyz
  'x, y, z'

loop_
  _atom_site_type_symbol
  _atom_site_label
  _atom_site_symmetry_multiplicity
  _atom_site_fract_x
  _atom_site_fract_y
  _atom_site_fract_z
  _atom_site_occupancy
  Fe  Fe1       1.0  0.49951  0.50055  0.00012  1.0000
  H   H1        1.0  0.99275  0.35215  0.00973  1.0000
  H   H2        1.0  0.00641  0.64890  0.99027  1.0000
  H   H3        1.0  0.63803  0.01879  0.98805  1.0000
  H   H4        1.0  0.36098  0.98228  0.01232  1.0000
  H   H5        1.0  0.38081  0.02295  0.68191  1.0000
  H   H6        1.0  0.62028  0.97629  0.31879  1.0000
  H   H7        1.0  0.28478  0.19633  0.50897  1.0000
  H   H8        1.0  0.71666  0.80207  0.49139  1.0000
  H   H9        1.0  0.09721  0.27685  0.68820  1.0000
  H   H10       1.0  0.90380  0.72209  0.31186  1.0000
  H   H11       1.0  0.01638  0.66403  0.67051  1.0000
  H   H12       1.0  0.98437  0.33502  0.32882  1.0000
  H   H13       1.0  0.19834  0.61366  0.48889  1.0000
  H   H14       1.0  0.80261  0.38479  0.51051  1.0000
  H   H15       1.0  0.23140  0.74518  0.64795  1.0000
  H   H16       1.0  0.76901  0.25438  0.35111  1.0000
  C   C1        1.0  0.99479  0.19541  0.00526  1.0000
  C   C2        1.0  0.00418  0.80577  0.99479  1.0000
  C   C3        1.0  0.79945  0.01122  0.99361  1.0000
  C   C4        1.0  0.19954  0.98997  0.00654  1.0000
  C   C5        1.0  0.27577  0.19561  0.63610  1.0000
  C   C6        1.0  0.72529  0.80347  0.36424  1.0000
  C   C7        1.0  0.18581  0.62477  0.61577  1.0000
  C   C8        1.0  0.81485  0.37437  0.38359  1.0000
  S   S1        1.0  0.39990  0.35235  0.68582  1.0000
  S   S2        1.0  0.60038  0.64744  0.31451  1.0000
  N   N1        1.0  0.78960  0.21097  0.99919  1.0000
  N   N2        1.0  0.20932  0.79024  0.00096  1.0000
  Cl  Cl1       1.0  0.64931  0.61609  0.78027  1.0000
  Cl  Cl2       1.0  0.34995  0.38462  0.21971  1.0000
  O   O1        1.0  0.35670  0.35953  0.86454  1.0000
  O   O2        1.0  0.64183  0.64186  0.13570  1.0000
