data_image0
_chemical_formula_structural       Zn4P4H48C20N4O20
_chemical_formula_sum              "Zn4 P4 H48 C20 N4 O20"
_cell_length_a       9.24724
_cell_length_b       10.3829
_cell_length_c       10.8965
_cell_angle_alpha    119.074
_cell_angle_beta     90.0002
_cell_angle_gamma    89.9997

_space_group_name_H-M_alt    "P 1"
_space_group_IT_number       1

loop_
  _space_group_symop_operation_xyz
  'x, y, z'

loop_
  _atom_site_type_symbol
  _atom_site_label
  _atom_site_symmetry_multiplicity
  _atom_site_fract_x
  _atom_site_fract_y
  _atom_site_fract_z
  _atom_site_occupancy
  Zn  Zn1       1.0  0.40740  0.77252  0.41762  1.0000
  Zn  Zn2       1.0  0.90741  0.72748  0.08238  1.0000
  Zn  Zn3       1.0  0.59259  0.22749  0.58238  1.0000
  Zn  Zn4       1.0  0.09260  0.27252  0.91762  1.0000
  P   P1        1.0  0.14865  0.58934  0.18516  1.0000
  P   P2        1.0  0.64867  0.91067  0.31485  1.0000
  P   P3        1.0  0.85135  0.41066  0.81484  1.0000
  P   P4        1.0  0.35133  0.08934  0.68515  1.0000
  H   H1        1.0  0.04862  0.53489  0.24756  1.0000
  H   H2        1.0  0.54863  0.96512  0.25246  1.0000
  H   H3        1.0  0.95139  0.46511  0.75244  1.0000
  H   H4        1.0  0.45137  0.03487  0.74754  1.0000
  H   H5        1.0  0.50759  0.52936  0.66994  1.0000
  H   H6        1.0  0.00760  0.97064  0.83006  1.0000
  H   H7        1.0  0.49240  0.47064  0.33006  1.0000
  H   H8        1.0  0.99241  0.02936  0.16994  1.0000
  H   H9        1.0  0.56829  0.71404  0.76737  1.0000
  H   H10       1.0  0.06830  0.78596  0.73263  1.0000
  H   H11       1.0  0.43170  0.28596  0.23262  1.0000
  H   H12       1.0  0.93171  0.21404  0.26737  1.0000
  H   H13       1.0  0.43148  0.89172  0.97351  1.0000
  H   H14       1.0  0.93148  0.60828  0.52649  1.0000
  H   H15       1.0  0.56853  0.10828  0.02649  1.0000
  H   H16       1.0  0.06852  0.39172  0.47351  1.0000
  H   H17       1.0  0.27069  0.83007  0.02285  1.0000
  H   H18       1.0  0.77069  0.66994  0.47716  1.0000
  H   H19       1.0  0.72931  0.16994  0.97716  1.0000
  H   H20       1.0  0.22931  0.33006  0.52285  1.0000
  H   H21       1.0  0.27003  0.84956  0.86885  1.0000
  H   H22       1.0  0.77003  0.65044  0.63115  1.0000
  H   H23       1.0  0.72997  0.15045  0.13115  1.0000
  H   H24       1.0  0.22997  0.34956  0.36885  1.0000
  H   H25       1.0  0.52202  0.51787  0.88146  1.0000
  H   H26       1.0  0.02203  0.98213  0.61855  1.0000
  H   H27       1.0  0.47798  0.48213  0.11854  1.0000
  H   H28       1.0  0.97798  0.01787  0.38146  1.0000
  H   H29       1.0  0.42493  0.64861  0.03549  1.0000
  H   H30       1.0  0.92494  0.85139  0.46451  1.0000
  H   H31       1.0  0.57507  0.35139  0.96451  1.0000
  H   H32       1.0  0.07506  0.14861  0.53549  1.0000
  H   H33       1.0  0.57884  0.70556  0.97127  1.0000
  H   H34       1.0  0.07885  0.79444  0.52874  1.0000
  H   H35       1.0  0.42115  0.29444  0.02873  1.0000
  H   H36       1.0  0.92115  0.20557  0.47127  1.0000
  H   H37       1.0  0.19017  0.58267  0.74157  1.0000
  H   H38       1.0  0.69017  0.91733  0.75843  1.0000
  H   H39       1.0  0.80982  0.41733  0.25843  1.0000
  H   H40       1.0  0.30983  0.08267  0.24157  1.0000
  H   H41       1.0  0.20481  0.57699  0.90429  1.0000
  H   H42       1.0  0.70481  0.92301  0.59571  1.0000
  H   H43       1.0  0.79519  0.42301  0.09571  1.0000
  H   H44       1.0  0.29519  0.07699  0.40429  1.0000
  H   H45       1.0  0.30407  0.44767  0.75479  1.0000
  H   H46       1.0  0.80407  0.05233  0.74521  1.0000
  H   H47       1.0  0.69593  0.55233  0.24521  1.0000
  H   H48       1.0  0.19593  0.94767  0.25479  1.0000
  C   C1        1.0  0.39472  0.67915  0.62117  1.0000
  C   C2        1.0  0.89474  0.82084  0.87883  1.0000
  C   C3        1.0  0.60525  0.32084  0.37883  1.0000
  C   C4        1.0  0.10527  0.17916  0.12117  1.0000
  C   C5        1.0  0.47186  0.64470  0.72607  1.0000
  C   C6        1.0  0.97187  0.85530  0.77393  1.0000
  C   C7        1.0  0.52813  0.35530  0.27393  1.0000
  C   C8        1.0  0.02814  0.14470  0.22607  1.0000
  C   C9        1.0  0.33573  0.82102  0.93532  1.0000
  C   C10       1.0  0.83573  0.67898  0.56468  1.0000
  C   C11       1.0  0.66427  0.17898  0.06468  1.0000
  C   C12       1.0  0.16427  0.32102  0.43532  1.0000
  C   C13       1.0  0.48533  0.63192  0.94250  1.0000
  C   C14       1.0  0.98533  0.86808  0.55751  1.0000
  C   C15       1.0  0.51467  0.36808  0.05750  1.0000
  C   C16       1.0  0.01467  0.13192  0.44250  1.0000
  C   C17       1.0  0.26052  0.56009  0.80917  1.0000
  C   C18       1.0  0.76052  0.93991  0.69083  1.0000
  C   C19       1.0  0.73947  0.43991  0.19083  1.0000
  C   C20       1.0  0.23948  0.06009  0.30917  1.0000
  N   N1        1.0  0.38607  0.66465  0.85176  1.0000
  N   N2        1.0  0.88608  0.83535  0.64824  1.0000
  N   N3        1.0  0.61392  0.33535  0.14824  1.0000
  N   N4        1.0  0.11392  0.16465  0.35177  1.0000
  O   O1        1.0  0.28705  0.62473  0.27194  1.0000
  O   O2        1.0  0.78706  0.87527  0.22807  1.0000
  O   O3        1.0  0.71295  0.37527  0.72806  1.0000
  O   O4        1.0  0.21294  0.12474  0.77193  1.0000
  O   O5        1.0  0.08010  0.72672  0.18955  1.0000
  O   O6        1.0  0.58011  0.77330  0.31047  1.0000
  O   O7        1.0  0.91990  0.27328  0.81045  1.0000
  O   O8        1.0  0.41989  0.22670  0.68953  1.0000
  O   O9        1.0  0.17501  0.46579  0.03420  1.0000
  O   O10       1.0  0.67503  0.03423  0.46581  1.0000
  O   O11       1.0  0.82499  0.53421  0.96580  1.0000
  O   O12       1.0  0.32496  0.96577  0.53419  1.0000
  O   O13       1.0  0.48675  0.69531  0.54038  1.0000
  O   O14       1.0  0.98677  0.80470  0.95963  1.0000
  O   O15       1.0  0.51324  0.30470  0.45962  1.0000
  O   O16       1.0  0.01325  0.19530  0.04038  1.0000
  O   O17       1.0  0.26056  0.68670  0.61517  1.0000
  O   O18       1.0  0.76057  0.81328  0.88483  1.0000
  O   O19       1.0  0.73943  0.31328  0.38482  1.0000
  O   O20       1.0  0.23944  0.18672  0.11518  1.0000
