data_image0
_chemical_formula_structural       Zn3H33C30N3O12
_chemical_formula_sum              "Zn3 H33 C30 N3 O12"
_cell_length_a       6.78778
_cell_length_b       12.2001
_cell_length_c       12.1954
_cell_angle_alpha    120.013
_cell_angle_beta     89.9649
_cell_angle_gamma    90.0086

_space_group_name_H-M_alt    "P 1"
_space_group_IT_number       1

loop_
  _space_group_symop_operation_xyz
  'x, y, z'

loop_
  _atom_site_type_symbol
  _atom_site_label
  _atom_site_symmetry_multiplicity
  _atom_site_fract_x
  _atom_site_fract_y
  _atom_site_fract_z
  _atom_site_occupancy
  Zn  Zn1       1.0  0.09985  0.35807  0.82156  1.0000
  Zn  Zn2       1.0  0.43381  0.17848  0.53648  1.0000
  Zn  Zn3       1.0  0.76699  0.46334  0.64209  1.0000
  H   H1        1.0  0.62789  0.41534  0.00331  1.0000
  H   H2        1.0  0.96186  0.99707  0.41233  1.0000
  H   H3        1.0  0.29530  0.58757  0.58488  1.0000
  H   H4        1.0  0.78937  0.58437  0.19718  1.0000
  H   H5        1.0  0.12317  0.80324  0.38741  1.0000
  H   H6        1.0  0.45643  0.61267  0.41592  1.0000
  H   H7        1.0  0.64407  0.65311  0.12484  1.0000
  H   H8        1.0  0.97789  0.87564  0.52861  1.0000
  H   H9        1.0  0.31136  0.47147  0.34705  1.0000
  H   H10       1.0  0.90493  0.64591  0.10751  1.0000
  H   H11       1.0  0.23866  0.89276  0.53869  1.0000
  H   H12       1.0  0.57213  0.46144  0.35400  1.0000
  H   H13       1.0  0.86786  0.36383  0.12173  1.0000
  H   H14       1.0  0.20168  0.87852  0.24225  1.0000
  H   H15       1.0  0.53520  0.75748  0.63618  1.0000
  H   H16       1.0  0.61039  0.17585  0.92106  1.0000
  H   H17       1.0  0.94386  0.07861  0.25376  1.0000
  H   H18       1.0  0.27731  0.74553  0.82437  1.0000
  H   H19       1.0  0.61358  0.11138  0.08388  1.0000
  H   H20       1.0  0.94646  0.91589  0.02641  1.0000
  H   H21       1.0  0.28032  0.97270  0.88877  1.0000
  H   H22       1.0  0.32329  0.15660  0.22668  1.0000
  H   H23       1.0  0.65614  0.77328  0.92924  1.0000
  H   H24       1.0  0.98990  0.07011  0.84371  1.0000
  H   H25       1.0  0.03234  0.26508  0.20295  1.0000
  H   H26       1.0  0.36560  0.79717  0.06205  1.0000
  H   H27       1.0  0.69917  0.93760  0.73517  1.0000
  H   H28       1.0  0.13576  0.55372  0.79411  1.0000
  H   H29       1.0  0.46906  0.20627  0.75979  1.0000
  H   H30       1.0  0.80290  0.24013  0.44624  1.0000
  H   H31       1.0  0.34351  0.53744  0.85629  1.0000
  H   H32       1.0  0.67708  0.14415  0.68150  1.0000
  H   H33       1.0  0.01092  0.31845  0.46266  1.0000
  C   C1        1.0  0.71052  0.47997  0.87803  1.0000
  C   C2        1.0  0.04436  0.12234  0.60221  1.0000
  C   C3        1.0  0.37791  0.39771  0.52005  1.0000
  C   C4        1.0  0.75614  0.46569  0.99362  1.0000
  C   C5        1.0  0.09012  0.00670  0.47232  1.0000
  C   C6        1.0  0.42357  0.52760  0.53438  1.0000
  C   C7        1.0  0.77472  0.59581  0.11377  1.0000
  C   C8        1.0  0.10860  0.88663  0.48232  1.0000
  C   C9        1.0  0.44199  0.51777  0.40432  1.0000
  C   C10       1.0  0.97645  0.34853  0.04808  1.0000
  C   C11       1.0  0.31035  0.95207  0.30045  1.0000
  C   C12       1.0  0.64378  0.69925  0.65152  1.0000
  C   C13       1.0  0.15261  0.28318  0.04886  1.0000
  C   C14       1.0  0.48630  0.95118  0.23404  1.0000
  C   C15       1.0  0.81976  0.76556  0.71693  1.0000
  C   C16       1.0  0.31962  0.25797  0.96667  1.0000
  C   C17       1.0  0.65331  0.03329  0.29081  1.0000
  C   C18       1.0  0.98670  0.70871  0.74216  1.0000
  C   C19       1.0  0.48385  0.19593  0.98352  1.0000
  C   C20       1.0  0.81725  0.01629  0.21158  1.0000
  C   C21       1.0  0.15081  0.78772  0.80416  1.0000
  C   C22       1.0  0.48478  0.15950  0.07456  1.0000
  C   C23       1.0  0.81782  0.92527  0.08407  1.0000
  C   C24       1.0  0.15166  0.91516  0.84058  1.0000
  C   C25       1.0  0.32119  0.18305  0.15385  1.0000
  C   C26       1.0  0.65417  0.84612  0.02856  1.0000
  C   C27       1.0  0.98802  0.97082  0.81715  1.0000
  C   C28       1.0  0.15935  0.24414  0.14042  1.0000
  C   C29       1.0  0.49261  0.85964  0.10338  1.0000
  C   C30       1.0  0.82631  0.89616  0.75605  1.0000
  N   N1        1.0  0.93561  0.39084  0.97206  1.0000
  N   N2        1.0  0.26964  0.02809  0.41888  1.0000
  N   N3        1.0  0.60302  0.58091  0.60918  1.0000
  O   O1        1.0  0.81451  0.41301  0.77647  1.0000
  O   O2        1.0  0.14825  0.22382  0.63674  1.0000
  O   O3        1.0  0.48175  0.36318  0.58703  1.0000
  O   O4        1.0  0.57877  0.55468  0.88573  1.0000
  O   O5        1.0  0.91242  0.11477  0.66929  1.0000
  O   O6        1.0  0.24620  0.33063  0.44533  1.0000
  O   O7        1.0  0.32825  0.29023  0.87835  1.0000
  O   O8        1.0  0.66211  0.12159  0.41142  1.0000
  O   O9        1.0  0.99527  0.58821  0.71006  1.0000
  O   O10       1.0  0.19779  0.52648  0.85223  1.0000
  O   O11       1.0  0.53137  0.14806  0.67447  1.0000
  O   O12       1.0  0.86520  0.32546  0.47370  1.0000
