data_image0
_chemical_formula_structural       Zn3H45C36N3O12
_chemical_formula_sum              "Zn3 H45 C36 N3 O12"
_cell_length_a       6.74985
_cell_length_b       12.5622
_cell_length_c       12.5666
_cell_angle_alpha    120.008
_cell_angle_beta     90.0119
_cell_angle_gamma    90.0185

_space_group_name_H-M_alt    "P 1"
_space_group_IT_number       1

loop_
  _space_group_symop_operation_xyz
  'x, y, z'

loop_
  _atom_site_type_symbol
  _atom_site_label
  _atom_site_symmetry_multiplicity
  _atom_site_fract_x
  _atom_site_fract_y
  _atom_site_fract_z
  _atom_site_occupancy
  Zn  Zn1       1.0  0.11235  0.46222  0.64469  1.0000
  Zn  Zn2       1.0  0.44543  0.35516  0.81744  1.0000
  Zn  Zn3       1.0  0.77879  0.18258  0.53776  1.0000
  H   H1        1.0  0.61555  0.74354  0.82823  1.0000
  H   H2        1.0  0.94835  0.17214  0.91598  1.0000
  H   H3        1.0  0.28141  0.08440  0.25619  1.0000
  H   H4        1.0  0.30482  0.05926  0.86222  1.0000
  H   H5        1.0  0.63661  0.13829  0.19740  1.0000
  H   H6        1.0  0.96926  0.80325  0.94074  1.0000
  H   H7        1.0  0.60660  0.96565  0.89719  1.0000
  H   H8        1.0  0.93890  0.10377  0.06948  1.0000
  H   H9        1.0  0.27147  0.93145  0.03414  1.0000
  H   H10       1.0  0.01446  0.92678  0.75676  1.0000
  H   H11       1.0  0.34630  0.24336  0.16982  1.0000
  H   H12       1.0  0.67924  0.83021  0.07337  1.0000
  H   H13       1.0  0.85955  0.75060  0.65544  1.0000
  H   H14       1.0  0.19198  0.34445  0.09475  1.0000
  H   H15       1.0  0.52516  0.90497  0.24963  1.0000
  H   H16       1.0  0.62934  0.57986  0.60277  1.0000
  H   H17       1.0  0.96206  0.39706  0.97662  1.0000
  H   H18       1.0  0.29553  0.02270  0.42034  1.0000
  H   H19       1.0  0.85403  0.34933  0.29764  1.0000
  H   H20       1.0  0.18678  0.70238  0.05158  1.0000
  H   H21       1.0  0.52148  0.94841  0.65066  1.0000
  H   H22       1.0  0.05240  0.45420  0.37034  1.0000
  H   H23       1.0  0.38519  0.62962  0.08351  1.0000
  H   H24       1.0  0.71962  0.91648  0.54580  1.0000
  H   H25       1.0  0.91078  0.45884  0.25283  1.0000
  H   H26       1.0  0.24395  0.74716  0.20582  1.0000
  H   H27       1.0  0.57879  0.79410  0.54132  1.0000
  H   H28       1.0  0.81305  0.62904  0.45791  1.0000
  H   H29       1.0  0.14605  0.54194  0.17078  1.0000
  H   H30       1.0  0.48008  0.82879  0.37103  1.0000
  H   H31       1.0  0.48501  0.43567  0.34296  1.0000
  H   H32       1.0  0.81802  0.65696  0.09264  1.0000
  H   H33       1.0  0.15238  0.90668  0.56429  1.0000
  H   H34       1.0  0.55375  0.54575  0.29988  1.0000
  H   H35       1.0  0.88688  0.70003  0.24575  1.0000
  H   H36       1.0  0.22141  0.75357  0.45437  1.0000
  H   H37       1.0  0.44987  0.59476  0.44744  1.0000
  H   H38       1.0  0.78267  0.55244  0.14719  1.0000
  H   H39       1.0  0.11680  0.85190  0.40524  1.0000
  H   H40       1.0  0.14923  0.24503  0.45203  1.0000
  H   H41       1.0  0.48277  0.54786  0.79306  1.0000
  H   H42       1.0  0.81590  0.20702  0.75494  1.0000
  H   H43       1.0  0.35939  0.31959  0.46824  1.0000
  H   H44       1.0  0.69305  0.53166  0.85129  1.0000
  H   H45       1.0  0.02623  0.14890  0.68059  1.0000
  C   C1        1.0  0.48428  0.78393  0.81171  1.0000
  C   C2        1.0  0.81690  0.18872  0.97275  1.0000
  C   C3        1.0  0.14987  0.02765  0.21591  1.0000
  C   C4        1.0  0.32195  0.70488  0.75012  1.0000
  C   C5        1.0  0.65468  0.25003  0.95494  1.0000
  C   C6        1.0  0.98791  0.04512  0.29509  1.0000
  C   C7        1.0  0.30818  0.96175  0.83227  1.0000
  C   C8        1.0  0.64015  0.16822  0.12986  1.0000
  C   C9        1.0  0.97288  0.87066  0.03826  1.0000
  C   C10       1.0  0.14918  0.75933  0.72954  1.0000
  C   C11       1.0  0.48176  0.27062  0.02979  1.0000
  C   C12       1.0  0.81482  0.97025  0.24075  1.0000
  C   C13       1.0  0.47826  0.90845  0.85076  1.0000
  C   C14       1.0  0.81055  0.14993  0.05836  1.0000
  C   C15       1.0  0.14331  0.94227  0.09143  1.0000
  C   C16       1.0  0.14760  0.88735  0.77282  1.0000
  C   C17       1.0  0.47966  0.22738  0.11454  1.0000
  C   C18       1.0  0.81258  0.88561  0.11275  1.0000
  C   C19       1.0  0.97425  0.69336  0.66480  1.0000
  C   C20       1.0  0.30685  0.33515  0.02830  1.0000
  C   C21       1.0  0.64008  0.97153  0.30680  1.0000
  C   C22       1.0  0.75722  0.52633  0.54658  1.0000
  C   C23       1.0  0.09001  0.45332  0.97941  1.0000
  C   C24       1.0  0.42360  0.02014  0.47383  1.0000
  C   C25       1.0  0.90287  0.44428  0.33191  1.0000
  C   C26       1.0  0.23575  0.66808  0.11215  1.0000
  C   C27       1.0  0.57030  0.88770  0.55575  1.0000
  C   C28       1.0  0.75798  0.53542  0.42759  1.0000
  C   C29       1.0  0.09081  0.57233  0.10759  1.0000
  C   C30       1.0  0.42497  0.89195  0.46463  1.0000
  C   C31       1.0  0.54918  0.52701  0.37646  1.0000
  C   C32       1.0  0.88210  0.62342  0.15043  1.0000
  C   C33       1.0  0.21643  0.84886  0.47298  1.0000
  C   C34       1.0  0.72266  0.39570  0.52368  1.0000
  C   C35       1.0  0.05580  0.47622  0.87172  1.0000
  C   C36       1.0  0.38920  0.12785  0.60440  1.0000
  N   N1        1.0  0.94057  0.57661  0.61682  1.0000
  N   N2        1.0  0.27334  0.38311  0.95952  1.0000
  N   N3        1.0  0.60671  0.04031  0.42353  1.0000
  O   O1        1.0  0.33797  0.58689  0.71391  1.0000
  O   O2        1.0  0.67080  0.28593  0.87296  1.0000
  O   O3        1.0  0.00431  0.12680  0.41305  1.0000
  O   O4        1.0  0.59636  0.32706  0.44751  1.0000
  O   O5        1.0  0.92990  0.55257  0.87924  1.0000
  O   O6        1.0  0.26314  0.12021  0.67305  1.0000
  O   O7        1.0  0.82836  0.36211  0.58828  1.0000
  O   O8        1.0  0.16142  0.41146  0.77357  1.0000
  O   O9        1.0  0.49466  0.22615  0.63787  1.0000
  O   O10       1.0  0.21346  0.32774  0.48182  1.0000
  O   O11       1.0  0.54711  0.51799  0.84585  1.0000
  O   O12       1.0  0.88036  0.15447  0.67231  1.0000
