data_image0
_chemical_formula_structural       Cu2H20C20I2N12O4
_chemical_formula_sum              "Cu2 H20 C20 I2 N12 O4"
_cell_length_a       4.15924
_cell_length_b       5.93025
_cell_length_c       26.2631
_cell_angle_alpha    90.0007
_cell_angle_beta     89.9997
_cell_angle_gamma    99.2629

_space_group_name_H-M_alt    "P 1"
_space_group_IT_number       1

loop_
  _space_group_symop_operation_xyz
  'x, y, z'

loop_
  _atom_site_type_symbol
  _atom_site_label
  _atom_site_symmetry_multiplicity
  _atom_site_fract_x
  _atom_site_fract_y
  _atom_site_fract_z
  _atom_site_occupancy
  Cu  Cu1       1.0  0.47097  0.23351  0.75000  1.0000
  Cu  Cu2       1.0  0.52902  0.76650  0.25000  1.0000
  H   H1        1.0  0.75828  0.09397  0.65436  1.0000
  H   H2        1.0  0.75831  0.09396  0.84564  1.0000
  H   H3        1.0  0.24170  0.90604  0.34564  1.0000
  H   H4        1.0  0.24168  0.90602  0.15436  1.0000
  H   H5        1.0  0.26908  0.75044  0.60384  1.0000
  H   H6        1.0  0.26910  0.75042  0.89617  1.0000
  H   H7        1.0  0.73094  0.24958  0.39616  1.0000
  H   H8        1.0  0.73091  0.24955  0.10384  1.0000
  H   H9        1.0  0.27974  0.63435  0.69489  1.0000
  H   H10       1.0  0.27977  0.63435  0.80511  1.0000
  H   H11       1.0  0.72024  0.36564  0.30511  1.0000
  H   H12       1.0  0.72023  0.36565  0.19489  1.0000
  H   H13       1.0  0.66124  0.36366  0.49431  1.0000
  H   H14       1.0  0.66123  0.36363  0.00569  1.0000
  H   H15       1.0  0.33878  0.63638  0.50568  1.0000
  H   H16       1.0  0.33880  0.63635  0.99431  1.0000
  H   H17       1.0  0.88958  0.14638  0.47759  1.0000
  H   H18       1.0  0.88956  0.14635  0.02241  1.0000
  H   H19       1.0  0.11044  0.85366  0.52241  1.0000
  H   H20       1.0  0.11046  0.85364  0.97759  1.0000
  C   C1        1.0  0.64705  0.24075  0.64319  1.0000
  C   C2        1.0  0.64709  0.24076  0.85681  1.0000
  C   C3        1.0  0.35292  0.75924  0.35681  1.0000
  C   C4        1.0  0.35290  0.75923  0.14319  1.0000
  C   C5        1.0  0.64200  0.30808  0.59242  1.0000
  C   C6        1.0  0.64202  0.30806  0.90758  1.0000
  C   C7        1.0  0.35799  0.69194  0.40758  1.0000
  C   C8        1.0  0.35799  0.69192  0.09242  1.0000
  C   C9        1.0  0.38079  0.60273  0.61452  1.0000
  C   C10       1.0  0.38082  0.60274  0.88548  1.0000
  C   C11       1.0  0.61919  0.39727  0.38548  1.0000
  C   C12       1.0  0.61918  0.39725  0.11452  1.0000
  C   C13       1.0  0.38587  0.53870  0.66559  1.0000
  C   C14       1.0  0.38588  0.53869  0.83442  1.0000
  C   C15       1.0  0.61412  0.46131  0.33441  1.0000
  C   C16       1.0  0.61412  0.46130  0.16559  1.0000
  C   C17       1.0  0.79961  0.17429  0.55378  1.0000
  C   C18       1.0  0.79960  0.17428  0.94622  1.0000
  C   C19       1.0  0.20039  0.82574  0.44622  1.0000
  C   C20       1.0  0.20041  0.82570  0.05378  1.0000
  I   I1        1.0  0.92968  0.93360  0.74999  1.0000
  I   I2        1.0  0.07032  0.06641  0.25000  1.0000
  N   N1        1.0  0.51666  0.35444  0.68032  1.0000
  N   N2        1.0  0.51669  0.35443  0.81968  1.0000
  N   N3        1.0  0.48332  0.64556  0.31968  1.0000
  N   N4        1.0  0.48331  0.64555  0.18032  1.0000
  N   N5        1.0  0.50623  0.48820  0.57740  1.0000
  N   N6        1.0  0.50626  0.48818  0.92261  1.0000
  N   N7        1.0  0.49376  0.51182  0.42260  1.0000
  N   N8        1.0  0.49376  0.51180  0.07740  1.0000
  N   N9        1.0  0.78427  0.23621  0.50525  1.0000
  N   N10       1.0  0.78427  0.23619  0.99475  1.0000
  N   N11       1.0  0.21575  0.76382  0.49474  1.0000
  N   N12       1.0  0.21576  0.76380  0.00526  1.0000
  O   O1        1.0  0.94022  0.01391  0.56885  1.0000
  O   O2        1.0  0.94025  0.01390  0.93115  1.0000
  O   O3        1.0  0.05976  0.98611  0.43115  1.0000
  O   O4        1.0  0.05972  0.98607  0.06885  1.0000
