data_image0
_chemical_formula_structural       Cd2H32C36N4O8
_chemical_formula_sum              "Cd2 H32 C36 N4 O8"
_cell_length_a       7.7743
_cell_length_b       9.40007
_cell_length_c       11.8541
_cell_angle_alpha    112.88
_cell_angle_beta     100.782
_cell_angle_gamma    92.8546

_space_group_name_H-M_alt    "P 1"
_space_group_IT_number       1

loop_
  _space_group_symop_operation_xyz
  'x, y, z'

loop_
  _atom_site_type_symbol
  _atom_site_label
  _atom_site_symmetry_multiplicity
  _atom_site_fract_x
  _atom_site_fract_y
  _atom_site_fract_z
  _atom_site_occupancy
  Cd  Cd1       1.0  0.66436  0.85155  0.50991  1.0000
  Cd  Cd2       1.0  0.33564  0.14846  0.49009  1.0000
  H   H1        1.0  0.47399  0.62544  0.00322  1.0000
  H   H2        1.0  0.52601  0.37455  0.99678  1.0000
  H   H3        1.0  0.47361  0.64873  0.21875  1.0000
  H   H4        1.0  0.52639  0.35126  0.78125  1.0000
  H   H5        1.0  0.82097  0.06480  0.17437  1.0000
  H   H6        1.0  0.17904  0.93519  0.82563  1.0000
  H   H7        1.0  0.80838  0.06781  0.38017  1.0000
  H   H8        1.0  0.19162  0.93218  0.61983  1.0000
  H   H9        1.0  0.04886  0.29885  0.25692  1.0000
  H   H10       1.0  0.95114  0.70116  0.74308  1.0000
  H   H11       1.0  0.84922  0.33415  0.30565  1.0000
  H   H12       1.0  0.15078  0.66585  0.69434  1.0000
  H   H13       1.0  0.13010  0.53635  0.43931  1.0000
  H   H14       1.0  0.86988  0.46365  0.56069  1.0000
  H   H15       1.0  0.92381  0.73794  0.23273  1.0000
  H   H16       1.0  0.07619  0.26207  0.76727  1.0000
  H   H17       1.0  0.07229  0.68232  0.13448  1.0000
  H   H18       1.0  0.92772  0.31769  0.86553  1.0000
  H   H19       1.0  0.21946  0.53942  0.25202  1.0000
  H   H20       1.0  0.78054  0.46059  0.74799  1.0000
  H   H21       1.0  0.46221  0.62577  0.82864  1.0000
  H   H22       1.0  0.53780  0.37421  0.17135  1.0000
  H   H23       1.0  0.85309  0.04038  0.00753  1.0000
  H   H24       1.0  0.14690  0.95962  0.99247  1.0000
  H   H25       1.0  0.47889  0.63209  0.62707  1.0000
  H   H26       1.0  0.52111  0.36790  0.37292  1.0000
  H   H27       1.0  0.84753  0.03010  0.79505  1.0000
  H   H28       1.0  0.15246  0.96990  0.20495  1.0000
  H   H29       1.0  0.81062  0.48471  0.01621  1.0000
  H   H30       1.0  0.18939  0.51530  0.98379  1.0000
  H   H31       1.0  0.77511  0.26804  0.07484  1.0000
  H   H32       1.0  0.22489  0.73196  0.92516  1.0000
  C   C1        1.0  0.54943  0.72656  0.08343  1.0000
  C   C2        1.0  0.45058  0.27343  0.91656  1.0000
  C   C3        1.0  0.64863  0.84339  0.06715  1.0000
  C   C4        1.0  0.35138  0.15660  0.93285  1.0000
  C   C5        1.0  0.54715  0.73941  0.20397  1.0000
  C   C6        1.0  0.45285  0.26058  0.79603  1.0000
  C   C7        1.0  0.74051  0.96872  0.17711  1.0000
  C   C8        1.0  0.25950  0.03128  0.82288  1.0000
  C   C9        1.0  0.73252  0.97286  0.29467  1.0000
  C   C10       1.0  0.26748  0.02713  0.70533  1.0000
  C   C11       1.0  0.94774  0.37834  0.26737  1.0000
  C   C12       1.0  0.05226  0.62166  0.73264  1.0000
  C   C13       1.0  0.88113  0.49419  0.10823  1.0000
  C   C14       1.0  0.11887  0.50583  0.89177  1.0000
  C   C15       1.0  0.86148  0.37439  0.14145  1.0000
  C   C16       1.0  0.13852  0.62561  0.85855  1.0000
  C   C17       1.0  0.89616  0.64240  0.42092  1.0000
  C   C18       1.0  0.10384  0.35760  0.57909  1.0000
  C   C19       1.0  0.03198  0.54243  0.36184  1.0000
  C   C20       1.0  0.96801  0.45757  0.63816  1.0000
  C   C21       1.0  0.00022  0.64309  0.19099  1.0000
  C   C22       1.0  0.99978  0.35691  0.80902  1.0000
  C   C23       1.0  0.13013  0.62200  0.29512  1.0000
  C   C24       1.0  0.86986  0.37800  0.70489  1.0000
  C   C25       1.0  0.25273  0.77078  0.38507  1.0000
  C   C26       1.0  0.74728  0.22922  0.61493  1.0000
  C   C27       1.0  0.65615  0.83501  0.94065  1.0000
  C   C28       1.0  0.34386  0.16498  0.05935  1.0000
  C   C29       1.0  0.55347  0.71808  0.82934  1.0000
  C   C30       1.0  0.44653  0.28191  0.17065  1.0000
  C   C31       1.0  0.76664  0.94729  0.92686  1.0000
  C   C32       1.0  0.23336  0.05270  0.07314  1.0000
  C   C33       1.0  0.56113  0.72056  0.71354  1.0000
  C   C34       1.0  0.43887  0.27944  0.28646  1.0000
  C   C35       1.0  0.76663  0.94213  0.80827  1.0000
  C   C36       1.0  0.23337  0.05787  0.19173  1.0000
  N   N1        1.0  0.63651  0.85994  0.30828  1.0000
  N   N2        1.0  0.36349  0.14005  0.69172  1.0000
  N   N3        1.0  0.66465  0.83141  0.70285  1.0000
  N   N4        1.0  0.33535  0.16859  0.29715  1.0000
  O   O1        1.0  0.73415  0.58547  0.39194  1.0000
  O   O2        1.0  0.26585  0.41454  0.60806  1.0000
  O   O3        1.0  0.95316  0.78354  0.49752  1.0000
  O   O4        1.0  0.04684  0.21646  0.50248  1.0000
  O   O5        1.0  0.23116  0.89454  0.36776  1.0000
  O   O6        1.0  0.76884  0.10547  0.63224  1.0000
  O   O7        1.0  0.37425  0.75665  0.46681  1.0000
  O   O8        1.0  0.62576  0.24336  0.53320  1.0000
