data_image0
_chemical_formula_structural       CdH12C18N14
_chemical_formula_sum              "Cd1 H12 C18 N14"
_cell_length_a       6.92723
_cell_length_b       6.92725
_cell_length_c       11.0962
_cell_angle_alpha    96.7053
_cell_angle_beta     96.7062
_cell_angle_gamma    109.232

_space_group_name_H-M_alt    "P 1"
_space_group_IT_number       1

loop_
  _space_group_symop_operation_xyz
  'x, y, z'

loop_
  _atom_site_type_symbol
  _atom_site_label
  _atom_site_symmetry_multiplicity
  _atom_site_fract_x
  _atom_site_fract_y
  _atom_site_fract_z
  _atom_site_occupancy
  Cd  Cd1       1.0  0.28588  0.71412  1.00000  1.0000
  H   H1        1.0  0.58498  0.94186  0.32573  1.0000
  H   H2        1.0  0.05815  0.41504  0.67428  1.0000
  H   H3        1.0  0.40149  0.10366  0.48477  1.0000
  H   H4        1.0  0.89633  0.59853  0.51523  1.0000
  H   H5        1.0  0.80263  0.29358  0.89774  1.0000
  H   H6        1.0  0.70640  0.19737  0.10227  1.0000
  H   H7        1.0  0.50287  0.70120  0.76305  1.0000
  H   H8        1.0  0.29877  0.49712  0.23695  1.0000
  H   H9        1.0  0.66065  0.05928  0.69683  1.0000
  H   H10       1.0  0.94070  0.33937  0.30318  1.0000
  H   H11       1.0  0.36403  0.44397  0.56870  1.0000
  H   H12       1.0  0.55601  0.63598  0.43130  1.0000
  C   C1        1.0  0.42589  0.93772  0.31133  1.0000
  C   C2        1.0  0.06229  0.57413  0.68867  1.0000
  C   C3        1.0  0.11580  0.89164  0.23069  1.0000
  C   C4        1.0  0.10837  0.88422  0.76930  1.0000
  C   C5        1.0  0.93391  0.81842  0.13538  1.0000
  C   C6        1.0  0.18158  0.06610  0.86462  1.0000
  C   C7        1.0  0.74474  0.65782  0.96533  1.0000
  C   C8        1.0  0.34216  0.25526  0.03468  1.0000
  C   C9        1.0  0.70458  0.33239  0.82782  1.0000
  C   C10       1.0  0.66759  0.29543  0.17218  1.0000
  C   C11       1.0  0.66223  0.51708  0.84806  1.0000
  C   C12       1.0  0.48290  0.33777  0.15194  1.0000
  C   C13       1.0  0.53881  0.55935  0.75267  1.0000
  C   C14       1.0  0.44063  0.46119  0.24733  1.0000
  C   C15       1.0  0.62445  0.20084  0.71547  1.0000
  C   C16       1.0  0.79915  0.37556  0.28454  1.0000
  C   C17       1.0  0.46272  0.41700  0.64430  1.0000
  C   C18       1.0  0.58298  0.53729  0.35570  1.0000
  N   N1        1.0  0.29013  0.85029  0.20783  1.0000
  N   N2        1.0  0.14972  0.70989  0.79216  1.0000
  N   N3        1.0  0.13799  0.99786  0.34299  1.0000
  N   N4        1.0  0.00213  0.86203  0.65701  1.0000
  N   N5        1.0  0.33626  0.02421  0.39230  1.0000
  N   N6        1.0  0.97579  0.66376  0.60769  1.0000
  N   N7        1.0  0.76136  0.86660  0.13391  1.0000
  N   N8        1.0  0.13340  0.23865  0.86609  1.0000
  N   N9        1.0  0.93080  0.68842  0.03264  1.0000
  N   N10       1.0  0.31156  0.06920  0.96736  1.0000
  N   N11       1.0  0.64058  0.76447  0.02390  1.0000
  N   N12       1.0  0.23552  0.35943  0.97610  1.0000
  N   N13       1.0  0.50446  0.24094  0.62451  1.0000
  N   N14       1.0  0.75905  0.49555  0.37549  1.0000
