data_image0
_chemical_formula_structural       La2H8C8N4Cl6
_chemical_formula_sum              "La2 H8 C8 N4 Cl6"
_cell_length_a       6.95006
_cell_length_b       7.49508
_cell_length_c       8.40117
_cell_angle_alpha    116.489
_cell_angle_beta     89.9999
_cell_angle_gamma    90.0001

_space_group_name_H-M_alt    "P 1"
_space_group_IT_number       1

loop_
  _space_group_symop_operation_xyz
  'x, y, z'

loop_
  _atom_site_type_symbol
  _atom_site_label
  _atom_site_symmetry_multiplicity
  _atom_site_fract_x
  _atom_site_fract_y
  _atom_site_fract_z
  _atom_site_occupancy
  La  La1       1.0  0.79835  0.75000  0.00000  1.0000
  La  La2       1.0  0.20166  0.25000  1.00000  1.0000
  H   H1        1.0  0.32838  0.64043  0.78037  1.0000
  H   H2        1.0  0.32839  0.85957  0.21963  1.0000
  H   H3        1.0  0.67162  0.14043  0.78037  1.0000
  H   H4        1.0  0.67161  0.35957  0.21963  1.0000
  H   H5        1.0  0.84828  0.50315  0.50670  1.0000
  H   H6        1.0  0.84828  0.99685  0.49330  1.0000
  H   H7        1.0  0.15172  0.00315  0.50670  1.0000
  H   H8        1.0  0.15172  0.49685  0.49330  1.0000
  C   C1        1.0  0.40706  0.57802  0.65556  1.0000
  C   C2        1.0  0.40706  0.92198  0.34443  1.0000
  C   C3        1.0  0.59294  0.07802  0.65557  1.0000
  C   C4        1.0  0.59294  0.42198  0.34443  1.0000
  C   C5        1.0  0.69197  0.50261  0.50555  1.0000
  C   C6        1.0  0.69197  0.99739  0.49445  1.0000
  C   C7        1.0  0.30803  0.00261  0.50555  1.0000
  C   C8        1.0  0.30803  0.49739  0.49445  1.0000
  N   N1        1.0  0.60029  0.58143  0.66273  1.0000
  N   N2        1.0  0.60030  0.91856  0.33727  1.0000
  N   N3        1.0  0.39970  0.08144  0.66273  1.0000
  N   N4        1.0  0.39970  0.41857  0.33727  1.0000
  Cl  Cl1       1.0  0.99995  0.88856  0.77703  1.0000
  Cl  Cl2       1.0  0.99995  0.61144  0.22297  1.0000
  Cl  Cl3       1.0  0.00005  0.11144  0.22297  1.0000
  Cl  Cl4       1.0  0.00005  0.38856  0.77703  1.0000
  Cl  Cl5       1.0  0.50000  0.50000  0.00000  1.0000
  Cl  Cl6       1.0  0.50000  1.00000  0.00000  1.0000
