data_image0
_chemical_formula_structural       Cd2H16C28S4N16F4
_chemical_formula_sum              "Cd2 H16 C28 S4 N16 F4"
_cell_length_a       7.26904
_cell_length_b       8.85149
_cell_length_c       14.1104
_cell_angle_alpha    108.266
_cell_angle_beta     100.717
_cell_angle_gamma    89.9176

_space_group_name_H-M_alt    "P 1"
_space_group_IT_number       1

loop_
  _space_group_symop_operation_xyz
  'x, y, z'

loop_
  _atom_site_type_symbol
  _atom_site_label
  _atom_site_symmetry_multiplicity
  _atom_site_fract_x
  _atom_site_fract_y
  _atom_site_fract_z
  _atom_site_occupancy
  Cd  Cd1       1.0  0.24992  0.38533  0.99999  1.0000
  Cd  Cd2       1.0  0.75007  0.61467  0.00001  1.0000
  H   H1        1.0  0.61591  0.97455  0.42297  1.0000
  H   H2        1.0  0.88413  0.55270  0.57667  1.0000
  H   H3        1.0  0.38409  0.02544  0.57703  1.0000
  H   H4        1.0  0.11588  0.44730  0.42333  1.0000
  H   H5        1.0  0.69703  0.26487  0.51209  1.0000
  H   H6        1.0  0.80321  0.75459  0.48793  1.0000
  H   H7        1.0  0.30296  0.73513  0.48791  1.0000
  H   H8        1.0  0.19679  0.24541  0.51207  1.0000
  H   H9        1.0  0.41038  0.37147  0.24706  1.0000
  H   H10       1.0  0.09004  0.12468  0.75331  1.0000
  H   H11       1.0  0.58962  0.62852  0.75294  1.0000
  H   H12       1.0  0.90997  0.87532  0.24669  1.0000
  H   H13       1.0  0.32258  0.08013  0.15799  1.0000
  H   H14       1.0  0.17739  0.92169  0.84209  1.0000
  H   H15       1.0  0.67741  0.91986  0.84201  1.0000
  H   H16       1.0  0.82262  0.07832  0.15791  1.0000
  C   C1        1.0  0.42622  0.75284  0.13852  1.0000
  C   C2        1.0  0.07339  0.61409  0.86116  1.0000
  C   C3        1.0  0.57378  0.24716  0.86148  1.0000
  C   C4        1.0  0.92661  0.38592  0.13884  1.0000
  C   C5        1.0  0.46967  0.01138  0.28482  1.0000
  C   C6        1.0  0.03030  0.72684  0.71502  1.0000
  C   C7        1.0  0.53033  0.98862  0.71518  1.0000
  C   C8        1.0  0.96971  0.27317  0.28498  1.0000
  C   C9        1.0  0.57227  0.06135  0.38449  1.0000
  C   C10       1.0  0.92786  0.67777  0.61532  1.0000
  C   C11       1.0  0.42772  0.93865  0.61551  1.0000
  C   C12       1.0  0.07214  0.32224  0.38468  1.0000
  C   C13       1.0  0.61894  0.22302  0.43408  1.0000
  C   C14       1.0  0.88127  0.79030  0.56596  1.0000
  C   C15       1.0  0.38106  0.77698  0.56592  1.0000
  C   C16       1.0  0.11873  0.20971  0.43404  1.0000
  C   C17       1.0  0.56262  0.32913  0.38118  1.0000
  C   C18       1.0  0.93780  0.94904  0.61902  1.0000
  C   C19       1.0  0.43738  0.67087  0.61882  1.0000
  C   C20       1.0  0.06220  0.05097  0.38098  1.0000
  C   C21       1.0  0.45814  0.28177  0.28257  1.0000
  C   C22       1.0  0.04217  0.99966  0.71766  1.0000
  C   C23       1.0  0.54186  0.71823  0.71743  1.0000
  C   C24       1.0  0.95783  0.00034  0.28234  1.0000
  C   C25       1.0  0.41014  0.12013  0.23381  1.0000
  C   C26       1.0  0.09000  0.88635  0.76621  1.0000
  C   C27       1.0  0.58986  0.87986  0.76619  1.0000
  C   C28       1.0  0.91001  0.11366  0.23379  1.0000
  S   S1        1.0  0.50489  0.81167  0.04774  1.0000
  S   S2        1.0  0.99442  0.76365  0.95189  1.0000
  S   S3        1.0  0.49511  0.18832  0.95226  1.0000
  S   S4        1.0  0.00558  0.23635  0.04811  1.0000
  N   N1        1.0  0.42089  0.84616  0.23573  1.0000
  N   N2        1.0  0.07893  0.61039  0.76400  1.0000
  N   N3        1.0  0.57911  0.15383  0.76428  1.0000
  N   N4        1.0  0.92108  0.38962  0.23600  1.0000
  N   N5        1.0  0.35545  0.75597  0.28662  1.0000
  N   N6        1.0  0.14459  0.46926  0.71313  1.0000
  N   N7        1.0  0.64455  0.24403  0.71338  1.0000
  N   N8        1.0  0.85542  0.53075  0.28688  1.0000
  N   N9        1.0  0.31881  0.61378  0.22332  1.0000
  N   N10       1.0  0.18122  0.39021  0.77641  1.0000
  N   N11       1.0  0.68119  0.38621  0.77668  1.0000
  N   N12       1.0  0.81878  0.60980  0.22359  1.0000
  N   N13       1.0  0.35825  0.60718  0.13174  1.0000
  N   N14       1.0  0.14150  0.47509  0.86796  1.0000
  N   N15       1.0  0.64175  0.39282  0.86827  1.0000
  N   N16       1.0  0.85850  0.52491  0.13205  1.0000
  F   F1        1.0  0.60917  0.48745  0.42840  1.0000
  F   F2        1.0  0.89165  0.06054  0.57196  1.0000
  F   F3        1.0  0.39084  0.51254  0.57159  1.0000
  F   F4        1.0  0.10835  0.93946  0.42804  1.0000
