data_image0
_chemical_formula_structural       Cd2H28C28N20
_chemical_formula_sum              "Cd2 H28 C28 N20"
_cell_length_a       8.82442
_cell_length_b       9.89742
_cell_length_c       11.4056
_cell_angle_alpha    104.164
_cell_angle_beta     104.346
_cell_angle_gamma    109.787

_space_group_name_H-M_alt    "P 1"
_space_group_IT_number       1

loop_
  _space_group_symop_operation_xyz
  'x, y, z'

loop_
  _atom_site_type_symbol
  _atom_site_label
  _atom_site_symmetry_multiplicity
  _atom_site_fract_x
  _atom_site_fract_y
  _atom_site_fract_z
  _atom_site_occupancy
  Cd  Cd1       1.0  0.02179  0.29163  0.24675  1.0000
  Cd  Cd2       1.0  0.97820  0.70837  0.75325  1.0000
  H   H1        1.0  0.32289  0.94143  0.39246  1.0000
  H   H2        1.0  0.67711  0.05857  0.60754  1.0000
  H   H3        1.0  0.37249  0.03585  0.55907  1.0000
  H   H4        1.0  0.62751  0.96415  0.44093  1.0000
  H   H5        1.0  0.38446  0.21713  0.44424  1.0000
  H   H6        1.0  0.61554  0.78287  0.55576  1.0000
  H   H7        1.0  0.59221  0.27313  0.55963  1.0000
  H   H8        1.0  0.40779  0.72688  0.44037  1.0000
  H   H9        1.0  0.83761  0.31962  0.48435  1.0000
  H   H10       1.0  0.16239  0.68038  0.51565  1.0000
  H   H11       1.0  0.58313  0.11829  0.07781  1.0000
  H   H12       1.0  0.41687  0.88171  0.92219  1.0000
  H   H13       1.0  0.33742  0.05762  0.19528  1.0000
  H   H14       1.0  0.66258  0.94238  0.80472  1.0000
  H   H15       1.0  0.52370  0.64891  0.97223  1.0000
  H   H16       1.0  0.47630  0.35109  0.02777  1.0000
  H   H17       1.0  0.52309  0.62681  0.12156  1.0000
  H   H18       1.0  0.47691  0.37319  0.87844  1.0000
  H   H19       1.0  0.77699  0.55432  0.13283  1.0000
  H   H20       1.0  0.22301  0.44568  0.86717  1.0000
  H   H21       1.0  0.78516  0.60375  0.99366  1.0000
  H   H22       1.0  0.21484  0.39625  0.00634  1.0000
  H   H23       1.0  0.84174  0.90301  0.02744  1.0000
  H   H24       1.0  0.15826  0.09699  0.97256  1.0000
  H   H25       1.0  0.07921  0.08050  0.43514  1.0000
  H   H26       1.0  0.92079  0.91950  0.56486  1.0000
  H   H27       1.0  0.92306  0.75917  0.34838  1.0000
  H   H28       1.0  0.07694  0.24083  0.65162  1.0000
  C   C1        1.0  0.42860  0.02675  0.48291  1.0000
  C   C2        1.0  0.57140  0.97325  0.51709  1.0000
  C   C3        1.0  0.49174  0.18397  0.46890  1.0000
  C   C4        1.0  0.50827  0.81603  0.53110  1.0000
  C   C5        1.0  0.73785  0.25558  0.38845  1.0000
  C   C6        1.0  0.26215  0.74442  0.61155  1.0000
  C   C7        1.0  0.59924  0.14935  0.17951  1.0000
  C   C8        1.0  0.40077  0.85065  0.82049  1.0000
  C   C9        1.0  0.47700  0.11784  0.23591  1.0000
  C   C10       1.0  0.52300  0.88216  0.76409  1.0000
  C   C11       1.0  0.55422  0.58641  0.03569  1.0000
  C   C12       1.0  0.44578  0.41359  0.96431  1.0000
  C   C13       1.0  0.74670  0.62511  0.07842  1.0000
  C   C14       1.0  0.25330  0.37489  0.92157  1.0000
  C   C15       1.0  0.88597  0.91102  0.12758  1.0000
  C   C16       1.0  0.11403  0.08898  0.87241  1.0000
  C   C17       1.0  0.00649  0.99618  0.33774  1.0000
  C   C18       1.0  0.99351  0.00382  0.66226  1.0000
  C   C19       1.0  0.92873  0.83830  0.29699  1.0000
  C   C20       1.0  0.07127  0.16170  0.70301  1.0000
  C   C21       1.0  0.14571  0.62413  0.21209  1.0000
  C   C22       1.0  0.85429  0.37587  0.78791  1.0000
  C   C23       1.0  0.17062  0.74417  0.06338  1.0000
  C   C24       1.0  0.82938  0.25583  0.93662  1.0000
  C   C25       1.0  0.43587  0.43500  0.27249  1.0000
  C   C26       1.0  0.56413  0.56500  0.72751  1.0000
  C   C27       1.0  0.71308  0.57483  0.42803  1.0000
  C   C28       1.0  0.28692  0.42517  0.57197  1.0000
  N   N1        1.0  0.56680  0.18684  0.36825  1.0000
  N   N2        1.0  0.43320  0.81316  0.63175  1.0000
  N   N3        1.0  0.76090  0.23542  0.27563  1.0000
  N   N4        1.0  0.23910  0.76458  0.72437  1.0000
  N   N5        1.0  0.85317  0.78597  0.16356  1.0000
  N   N6        1.0  0.14683  0.21403  0.83644  1.0000
  N   N7        1.0  0.97936  0.04009  0.23123  1.0000
  N   N8        1.0  0.02064  0.95991  0.76877  1.0000
  N   N9        1.0  0.23256  0.70540  0.15838  1.0000
  N   N10       1.0  0.76744  0.29460  0.84162  1.0000
  N   N11       1.0  0.08154  0.55333  0.27052  1.0000
  N   N12       1.0  0.91846  0.44667  0.72948  1.0000
  N   N13       1.0  0.13011  0.78946  0.97939  1.0000
  N   N14       1.0  0.86989  0.21054  0.02061  1.0000
  N   N15       1.0  0.59666  0.52920  0.31526  1.0000
  N   N16       1.0  0.40334  0.47080  0.68474  1.0000
  N   N17       1.0  0.28770  0.34998  0.22006  1.0000
  N   N18       1.0  0.71229  0.65002  0.77994  1.0000
  N   N19       1.0  0.83221  0.62807  0.52647  1.0000
  N   N20       1.0  0.16778  0.37193  0.47353  1.0000
