data_image0
_chemical_formula_structural       Sm2H32C32N20Cl2O12
_chemical_formula_sum              "Sm2 H32 C32 N20 Cl2 O12"
_cell_length_a       8.72457
_cell_length_b       11.0968
_cell_length_c       13.0028
_cell_angle_alpha    115.221
_cell_angle_beta     105.612
_cell_angle_gamma    90.0175

_space_group_name_H-M_alt    "P 1"
_space_group_IT_number       1

loop_
  _space_group_symop_operation_xyz
  'x, y, z'

loop_
  _atom_site_type_symbol
  _atom_site_label
  _atom_site_symmetry_multiplicity
  _atom_site_fract_x
  _atom_site_fract_y
  _atom_site_fract_z
  _atom_site_occupancy
  Sm  Sm1       1.0  0.74992  0.55414  0.00001  1.0000
  Sm  Sm2       1.0  0.25008  0.44586  0.99999  1.0000
  H   H1        1.0  0.02806  0.46639  0.69362  1.0000
  H   H2        1.0  0.47195  0.77288  0.30631  1.0000
  H   H3        1.0  0.97194  0.53361  0.30638  1.0000
  H   H4        1.0  0.52805  0.22712  0.69369  1.0000
  H   H5        1.0  0.97185  0.29485  0.65342  1.0000
  H   H6        1.0  0.52835  0.64170  0.34669  1.0000
  H   H7        1.0  0.02815  0.70515  0.34658  1.0000
  H   H8        1.0  0.47165  0.35830  0.65331  1.0000
  H   H9        1.0  0.38278  0.37030  0.26217  1.0000
  H   H10       1.0  0.11743  0.10834  0.73793  1.0000
  H   H11       1.0  0.61722  0.62970  0.73783  1.0000
  H   H12       1.0  0.88257  0.89167  0.26207  1.0000
  H   H13       1.0  0.09977  0.99953  0.07278  1.0000
  H   H14       1.0  0.40030  0.92667  0.92722  1.0000
  H   H15       1.0  0.90023  0.00047  0.92722  1.0000
  H   H16       1.0  0.59970  0.07333  0.07278  1.0000
  H   H17       1.0  0.49580  0.06320  0.38114  1.0000
  H   H18       1.0  0.00424  0.68233  0.61881  1.0000
  H   H19       1.0  0.50420  0.93680  0.61886  1.0000
  H   H20       1.0  0.99576  0.31767  0.38119  1.0000
  H   H21       1.0  0.01816  0.72123  0.00280  1.0000
  H   H22       1.0  0.48180  0.71842  0.99714  1.0000
  H   H23       1.0  0.98184  0.27877  0.99719  1.0000
  H   H24       1.0  0.51820  0.28158  0.00286  1.0000
  H   H25       1.0  0.85484  0.76358  0.93711  1.0000
  H   H26       1.0  0.64512  0.82641  0.06280  1.0000
  H   H27       1.0  0.14517  0.23642  0.06289  1.0000
  H   H28       1.0  0.35488  0.17359  0.93721  1.0000
  H   H29       1.0  0.25753  0.91237  0.21049  1.0000
  H   H30       1.0  0.24249  0.70191  0.78941  1.0000
  H   H31       1.0  0.74247  0.08763  0.78951  1.0000
  H   H32       1.0  0.75751  0.29809  0.21059  1.0000
  C   C1        1.0  0.28977  0.01470  0.22610  1.0000
  C   C2        1.0  0.21029  0.78868  0.77385  1.0000
  C   C3        1.0  0.71023  0.98530  0.77390  1.0000
  C   C4        1.0  0.78971  0.21132  0.22615  1.0000
  C   C5        1.0  0.87609  0.43471  0.78809  1.0000
  C   C6        1.0  0.62412  0.64694  0.21198  1.0000
  C   C7        1.0  0.12391  0.56529  0.21191  1.0000
  C   C8        1.0  0.37588  0.35306  0.78802  1.0000
  C   C9        1.0  0.92875  0.39301  0.67631  1.0000
  C   C10       1.0  0.57139  0.71697  0.32370  1.0000
  C   C11       1.0  0.07125  0.60699  0.32369  1.0000
  C   C12       1.0  0.42861  0.28303  0.67630  1.0000
  C   C13       1.0  0.59517  0.31701  0.43075  1.0000
  C   C14       1.0  0.90486  0.88667  0.56928  1.0000
  C   C15       1.0  0.40483  0.68299  0.56925  1.0000
  C   C16       1.0  0.09514  0.11333  0.43072  1.0000
  C   C17       1.0  0.45605  0.22877  0.33523  1.0000
  C   C18       1.0  0.04398  0.89383  0.66482  1.0000
  C   C19       1.0  0.54395  0.77123  0.66477  1.0000
  C   C20       1.0  0.95602  0.10617  0.33518  1.0000
  C   C21       1.0  0.35940  0.26968  0.25408  1.0000
  C   C22       1.0  0.14070  0.01577  0.74598  1.0000
  C   C23       1.0  0.64059  0.73032  0.74592  1.0000
  C   C24       1.0  0.85930  0.98423  0.25402  1.0000
  C   C25       1.0  0.20105  0.06321  0.14878  1.0000
  C   C26       1.0  0.29903  0.91442  0.85122  1.0000
  C   C27       1.0  0.79895  0.93679  0.85122  1.0000
  C   C28       1.0  0.70097  0.08558  0.14878  1.0000
  C   C29       1.0  0.42005  0.09797  0.32025  1.0000
  C   C30       1.0  0.08001  0.77794  0.67972  1.0000
  C   C31       1.0  0.57996  0.90202  0.67975  1.0000
  C   C32       1.0  0.91999  0.22206  0.32028  1.0000
  N   N1        1.0  0.68483  0.28233  0.51289  1.0000
  N   N2        1.0  0.81528  0.76986  0.48719  1.0000
  N   N3        1.0  0.31517  0.71767  0.48711  1.0000
  N   N4        1.0  0.18472  0.23014  0.51281  1.0000
  N   N5        1.0  0.80100  0.38518  0.57517  1.0000
  N   N6        1.0  0.69907  0.81033  0.42483  1.0000
  N   N7        1.0  0.19900  0.61482  0.42482  1.0000
  N   N8        1.0  0.30093  0.18967  0.57517  1.0000
  N   N9        1.0  0.78687  0.48079  0.53725  1.0000
  N   N10       1.0  0.71308  0.94381  0.46268  1.0000
  N   N11       1.0  0.21314  0.51921  0.46276  1.0000
  N   N12       1.0  0.28692  0.05619  0.53732  1.0000
  N   N13       1.0  0.65638  0.43854  0.44521  1.0000
  N   N14       1.0  0.84355  0.99364  0.55473  1.0000
  N   N15       1.0  0.34362  0.56146  0.55479  1.0000
  N   N16       1.0  0.15645  0.00636  0.44527  1.0000
  N   N17       1.0  0.23502  0.18816  0.16251  1.0000
  N   N18       1.0  0.26509  0.02568  0.83753  1.0000
  N   N19       1.0  0.76498  0.81184  0.83749  1.0000
  N   N20       1.0  0.73491  0.97432  0.16247  1.0000
  Cl  Cl1       1.0  0.75003  0.30568  0.00007  1.0000
  Cl  Cl2       1.0  0.24997  0.69432  0.99993  1.0000
  O   O1        1.0  0.97484  0.43399  0.87980  1.0000
  O   O2        1.0  0.52540  0.55451  0.12028  1.0000
  O   O3        1.0  0.02516  0.56601  0.12020  1.0000
  O   O4        1.0  0.47460  0.44549  0.87972  1.0000
  O   O5        1.0  0.73819  0.47001  0.78776  1.0000
  O   O6        1.0  0.76207  0.68249  0.21234  1.0000
  O   O7        1.0  0.26181  0.52999  0.21224  1.0000
  O   O8        1.0  0.23792  0.31751  0.78766  1.0000
  O   O9        1.0  0.90477  0.73087  0.00095  1.0000
  O   O10       1.0  0.59519  0.72992  0.99897  1.0000
  O   O11       1.0  0.09523  0.26913  0.99905  1.0000
  O   O12       1.0  0.40481  0.27008  0.00103  1.0000
