data_image0
_chemical_formula_structural       Zn4Fe2H32C24Cl4O12
_chemical_formula_sum              "Zn4 Fe2 H32 C24 Cl4 O12"
_cell_length_a       9.63751
_cell_length_b       10.8531
_cell_length_c       10.8654
_cell_angle_alpha    119.528
_cell_angle_beta     110.197
_cell_angle_gamma    94.5351

_space_group_name_H-M_alt    "P 1"
_space_group_IT_number       1

loop_
  _space_group_symop_operation_xyz
  'x, y, z'

loop_
  _atom_site_type_symbol
  _atom_site_label
  _atom_site_symmetry_multiplicity
  _atom_site_fract_x
  _atom_site_fract_y
  _atom_site_fract_z
  _atom_site_occupancy
  Zn  Zn1       1.0  0.36268  0.84801  0.37162  1.0000
  Zn  Zn2       1.0  0.63731  0.15198  0.62837  1.0000
  Zn  Zn3       1.0  0.45558  0.50917  0.13280  1.0000
  Zn  Zn4       1.0  0.54441  0.49083  0.86720  1.0000
  Fe  Fe1       1.0  0.28728  0.58397  0.26048  1.0000
  Fe  Fe2       1.0  0.71272  0.41602  0.73953  1.0000
  H   H1        1.0  0.48024  0.17203  0.97883  1.0000
  H   H2        1.0  0.51976  0.82797  0.02116  1.0000
  H   H3        1.0  0.44303  0.19520  0.13866  1.0000
  H   H4        1.0  0.55697  0.80480  0.86133  1.0000
  H   H5        1.0  0.68927  0.08532  0.06780  1.0000
  H   H6        1.0  0.31074  0.91469  0.93220  1.0000
  H   H7        1.0  0.66575  0.13890  0.24038  1.0000
  H   H8        1.0  0.33424  0.86110  0.75961  1.0000
  H   H9        1.0  0.90586  0.32705  0.36147  1.0000
  H   H10       1.0  0.09414  0.67296  0.63854  1.0000
  H   H11       1.0  0.86262  0.32612  0.18776  1.0000
  H   H12       1.0  0.13738  0.67389  0.81226  1.0000
  H   H13       1.0  0.72334  0.46403  0.42151  1.0000
  H   H14       1.0  0.27665  0.53598  0.57849  1.0000
  H   H15       1.0  0.79792  0.54550  0.33851  1.0000
  H   H16       1.0  0.20207  0.45451  0.66149  1.0000
  H   H17       1.0  0.16393  0.08420  0.50506  1.0000
  H   H18       1.0  0.83607  0.91580  0.49493  1.0000
  H   H19       1.0  0.05007  0.89430  0.40266  1.0000
  H   H20       1.0  0.94993  0.10571  0.59734  1.0000
  H   H21       1.0  0.86704  0.90364  0.19097  1.0000
  H   H22       1.0  0.13296  0.09637  0.80903  1.0000
  H   H23       1.0  0.90999  0.08758  0.35373  1.0000
  H   H24       1.0  0.09002  0.91243  0.64626  1.0000
  H   H25       1.0  0.10622  0.18740  0.30551  1.0000
  H   H26       1.0  0.89379  0.81260  0.69447  1.0000
  H   H27       1.0  0.96338  0.05282  0.10971  1.0000
  H   H28       1.0  0.03663  0.94717  0.89027  1.0000
  H   H29       1.0  0.11032  0.87921  0.07517  1.0000
  H   H30       1.0  0.88969  0.12078  0.92482  1.0000
  H   H31       1.0  0.27041  0.04659  0.22597  1.0000
  H   H32       1.0  0.72961  0.95340  0.77403  1.0000
  C   C1        1.0  0.15921  0.63183  0.34713  1.0000
  C   C2        1.0  0.84079  0.36817  0.65288  1.0000
  C   C3        1.0  0.22306  0.39037  0.17197  1.0000
  C   C4        1.0  0.77696  0.60963  0.82806  1.0000
  C   C5        1.0  0.46970  0.64476  0.42194  1.0000
  C   C6        1.0  0.53031  0.35524  0.57807  1.0000
  C   C7        1.0  0.20518  0.60138  0.09860  1.0000
  C   C8        1.0  0.79481  0.39861  0.90141  1.0000
  C   C9        1.0  0.53233  0.22053  0.10616  1.0000
  C   C10       1.0  0.46767  0.77947  0.89384  1.0000
  C   C11       1.0  0.67602  0.17633  0.16581  1.0000
  C   C12       1.0  0.32398  0.82367  0.83419  1.0000
  C   C13       1.0  0.81356  0.31925  0.26209  1.0000
  C   C14       1.0  0.18644  0.68075  0.73792  1.0000
  C   C15       1.0  0.73901  0.44159  0.31734  1.0000
  C   C16       1.0  0.26099  0.55842  0.68266  1.0000
  C   C17       1.0  0.08947  0.98186  0.38838  1.0000
  C   C18       1.0  0.91054  0.01814  0.61161  1.0000
  C   C19       1.0  0.96002  0.00851  0.28573  1.0000
  C   C20       1.0  0.03999  0.99150  0.71426  1.0000
  C   C21       1.0  0.04333  0.06835  0.21989  1.0000
  C   C22       1.0  0.95667  0.93165  0.78010  1.0000
  C   C23       1.0  0.15759  0.97988  0.19493  1.0000
  C   C24       1.0  0.84242  0.02011  0.80507  1.0000
  Cl  Cl1       1.0  0.54732  0.98311  0.35181  1.0000
  Cl  Cl2       1.0  0.45267  0.01688  0.64819  1.0000
  Cl  Cl3       1.0  0.65707  0.65958  0.14668  1.0000
  Cl  Cl4       1.0  0.34292  0.34042  0.85332  1.0000
  O   O1        1.0  0.07172  0.66044  0.40225  1.0000
  O   O2        1.0  0.92827  0.33956  0.59776  1.0000
  O   O3        1.0  0.17735  0.26239  0.11377  1.0000
  O   O4        1.0  0.82268  0.73761  0.88627  1.0000
  O   O5        1.0  0.58745  0.68184  0.53074  1.0000
  O   O6        1.0  0.41256  0.31816  0.46925  1.0000
  O   O7        1.0  0.14392  0.60996  0.99039  1.0000
  O   O8        1.0  0.85606  0.39002  0.00961  1.0000
  O   O9        1.0  0.58701  0.38158  0.18408  1.0000
  O   O10       1.0  0.41298  0.61843  0.81592  1.0000
  O   O11       1.0  0.18215  0.92965  0.30198  1.0000
  O   O12       1.0  0.81785  0.07034  0.69800  1.0000
