data_image0
_chemical_formula_structural       Mn6H12C36O24
_chemical_formula_sum              "Mn6 H12 C36 O24"
_cell_length_a       6.58814
_cell_length_b       11.3593
_cell_length_c       11.3126
_cell_angle_alpha    111.422
_cell_angle_beta     90.0323
_cell_angle_gamma    90.0007

_space_group_name_H-M_alt    "P 1"
_space_group_IT_number       1

loop_
  _space_group_symop_operation_xyz
  'x, y, z'

loop_
  _atom_site_type_symbol
  _atom_site_label
  _atom_site_symmetry_multiplicity
  _atom_site_fract_x
  _atom_site_fract_y
  _atom_site_fract_z
  _atom_site_occupancy
  Mn  Mn1       1.0  0.71719  0.17678  0.27382  1.0000
  Mn  Mn2       1.0  0.21847  0.32270  0.22478  1.0000
  Mn  Mn3       1.0  0.28132  0.82263  0.72492  1.0000
  Mn  Mn4       1.0  0.78103  0.67771  0.77591  1.0000
  Mn  Mn5       1.0  0.99960  0.49992  0.49970  1.0000
  Mn  Mn6       1.0  0.50145  0.00145  0.00168  1.0000
  H   H1        1.0  0.66360  0.65532  0.02921  1.0000
  H   H2        1.0  0.16360  0.84441  0.47091  1.0000
  H   H3        1.0  0.33652  0.34428  0.97074  1.0000
  H   H4        1.0  0.83637  0.15566  0.52899  1.0000
  H   H5        1.0  0.65908  0.45629  0.07232  1.0000
  H   H6        1.0  0.15855  0.04356  0.42796  1.0000
  H   H7        1.0  0.34079  0.54338  0.92764  1.0000
  H   H8        1.0  0.84084  0.95655  0.57215  1.0000
  H   H9        1.0  0.62541  0.86747  0.42941  1.0000
  H   H10       1.0  0.12575  0.63242  0.07060  1.0000
  H   H11       1.0  0.37495  0.13213  0.57057  1.0000
  H   H12       1.0  0.87476  0.36784  0.92916  1.0000
  C   C1        1.0  0.65289  0.77478  0.22750  1.0000
  C   C2        1.0  0.15277  0.72510  0.27259  1.0000
  C   C3        1.0  0.34744  0.22485  0.77247  1.0000
  C   C4        1.0  0.84718  0.27507  0.72729  1.0000
  C   C5        1.0  0.65868  0.65814  0.12626  1.0000
  C   C6        1.0  0.15849  0.84171  0.37390  1.0000
  C   C7        1.0  0.34157  0.34150  0.87369  1.0000
  C   C8        1.0  0.84140  0.15842  0.62603  1.0000
  C   C9        1.0  0.65894  0.54722  0.15051  1.0000
  C   C10       1.0  0.15847  0.95267  0.34972  1.0000
  C   C11       1.0  0.34120  0.45242  0.84943  1.0000
  C   C12       1.0  0.84109  0.04750  0.65033  1.0000
  C   C13       1.0  0.65944  0.54877  0.27521  1.0000
  C   C14       1.0  0.15893  0.95114  0.22505  1.0000
  C   C15       1.0  0.34080  0.45085  0.72472  1.0000
  C   C16       1.0  0.84060  0.04911  0.77504  1.0000
  C   C17       1.0  0.64772  0.66567  0.37809  1.0000
  C   C18       1.0  0.14778  0.83430  0.12213  1.0000
  C   C19       1.0  0.35261  0.33397  0.62186  1.0000
  C   C20       1.0  0.85246  0.16600  0.87784  1.0000
  C   C21       1.0  0.64255  0.77716  0.35139  1.0000
  C   C22       1.0  0.14266  0.72274  0.14870  1.0000
  C   C23       1.0  0.35778  0.22247  0.64857  1.0000
  C   C24       1.0  0.85760  0.27749  0.85117  1.0000
  C   C25       1.0  0.64956  0.89340  0.19901  1.0000
  C   C26       1.0  0.14968  0.60634  0.30094  1.0000
  C   C27       1.0  0.35044  0.10621  0.80099  1.0000
  C   C28       1.0  0.85032  0.39382  0.69900  1.0000
  C   C29       1.0  0.66898  0.42000  0.28129  1.0000
  C   C30       1.0  0.16782  0.07981  0.21877  1.0000
  C   C31       1.0  0.33108  0.57962  0.71871  1.0000
  C   C32       1.0  0.83083  0.92049  0.78137  1.0000
  C   C33       1.0  0.62203  0.68269  0.51577  1.0000
  C   C34       1.0  0.12283  0.81747  0.98449  1.0000
  C   C35       1.0  0.37820  0.31706  0.48420  1.0000
  C   C36       1.0  0.87838  0.18316  0.01540  1.0000
  O   O1        1.0  0.68250  0.99909  0.28849  1.0000
  O   O2        1.0  0.18307  0.50082  0.21131  1.0000
  O   O3        1.0  0.31697  0.00068  0.71138  1.0000
  O   O4        1.0  0.81705  0.49932  0.78871  1.0000
  O   O5        1.0  0.49912  0.76797  0.57784  1.0000
  O   O6        1.0  0.99998  0.73218  0.92207  1.0000
  O   O7        1.0  0.50140  0.23198  0.42208  1.0000
  O   O8        1.0  0.00114  0.26850  0.07755  1.0000
  O   O9        1.0  0.72555  0.61578  0.56524  1.0000
  O   O10       1.0  0.22673  0.88445  0.93536  1.0000
  O   O11       1.0  0.27430  0.38390  0.43478  1.0000
  O   O12       1.0  0.77503  0.11620  0.06498  1.0000
  O   O13       1.0  0.81033  0.38742  0.34092  1.0000
  O   O14       1.0  0.30946  0.11242  0.15945  1.0000
  O   O15       1.0  0.18973  0.61199  0.65902  1.0000
  O   O16       1.0  0.68943  0.88836  0.84117  1.0000
  O   O17       1.0  0.54409  0.33553  0.21493  1.0000
  O   O18       1.0  0.04244  0.16413  0.28447  1.0000
  O   O19       1.0  0.45571  0.66410  0.78516  1.0000
  O   O20       1.0  0.95551  0.83595  0.71523  1.0000
  O   O21       1.0  0.61275  0.87975  0.08428  1.0000
  O   O22       1.0  0.11287  0.61983  0.41558  1.0000
  O   O23       1.0  0.38716  0.11973  0.91567  1.0000
  O   O24       1.0  0.88717  0.38032  0.58440  1.0000
