data_image0
_chemical_formula_structural       Mo6H14C16N6O18
_chemical_formula_sum              "Mo6 H14 C16 N6 O18"
_cell_length_a       3.68602
_cell_length_b       13.2485
_cell_length_c       15.4599
_cell_angle_alpha    111.644
_cell_angle_beta     96.858
_cell_angle_gamma    89.9835

_space_group_name_H-M_alt    "P 1"
_space_group_IT_number       1

loop_
  _space_group_symop_operation_xyz
  'x, y, z'

loop_
  _atom_site_type_symbol
  _atom_site_label
  _atom_site_symmetry_multiplicity
  _atom_site_fract_x
  _atom_site_fract_y
  _atom_site_fract_z
  _atom_site_occupancy
  Mo  Mo1       1.0  0.40439  0.34027  0.80571  1.0000
  Mo  Mo2       1.0  0.59561  0.65973  0.19429  1.0000
  Mo  Mo3       1.0  0.27804  0.36547  0.55732  1.0000
  Mo  Mo4       1.0  0.72196  0.63452  0.44268  1.0000
  Mo  Mo5       1.0  0.15398  0.39806  0.30673  1.0000
  Mo  Mo6       1.0  0.84602  0.60194  0.69327  1.0000
  H   H1        1.0  0.52423  0.39735  0.04799  1.0000
  H   H2        1.0  0.47577  0.60265  0.95201  1.0000
  H   H3        1.0  0.30101  0.13591  0.60042  1.0000
  H   H4        1.0  0.69900  0.86409  0.39958  1.0000
  H   H5        1.0  0.26597  0.93189  0.53167  1.0000
  H   H6        1.0  0.73402  0.06811  0.46833  1.0000
  H   H7        1.0  0.32038  0.83021  0.64102  1.0000
  H   H8        1.0  0.67962  0.16979  0.35898  1.0000
  H   H9        1.0  0.40619  0.93474  0.81291  1.0000
  H   H10       1.0  0.59381  0.06526  0.18709  1.0000
  H   H11       1.0  0.48812  0.05690  0.98359  1.0000
  H   H12       1.0  0.51189  0.94310  0.01641  1.0000
  H   H13       1.0  0.56105  0.25808  0.12737  1.0000
  H   H14       1.0  0.43896  0.74191  0.87263  1.0000
  C   C1        1.0  0.32307  0.08822  0.64504  1.0000
  C   C2        1.0  0.67693  0.91179  0.35496  1.0000
  C   C3        1.0  0.30392  0.97509  0.60729  1.0000
  C   C4        1.0  0.69608  0.02492  0.39271  1.0000
  C   C5        1.0  0.33404  0.91857  0.66791  1.0000
  C   C6        1.0  0.66595  0.08143  0.33209  1.0000
  C   C7        1.0  0.38208  0.97700  0.76414  1.0000
  C   C8        1.0  0.61792  0.02300  0.23586  1.0000
  C   C9        1.0  0.39870  0.09063  0.79732  1.0000
  C   C10       1.0  0.60130  0.90937  0.20268  1.0000
  C   C11       1.0  0.44775  0.15924  0.89648  1.0000
  C   C12       1.0  0.55226  0.84076  0.10352  1.0000
  C   C13       1.0  0.48716  0.13599  0.97869  1.0000
  C   C14       1.0  0.51285  0.86400  0.02131  1.0000
  C   C15       1.0  0.52419  0.23646  0.05211  1.0000
  C   C16       1.0  0.47581  0.76354  0.94789  1.0000
  N   N1        1.0  0.36947  0.14491  0.73792  1.0000
  N   N2        1.0  0.63053  0.85509  0.26208  1.0000
  N   N3        1.0  0.46046  0.26794  0.91971  1.0000
  N   N4        1.0  0.53954  0.73206  0.08029  1.0000
  N   N5        1.0  0.50663  0.31310  0.01366  1.0000
  N   N6        1.0  0.49338  0.68689  0.98634  1.0000
  O   O1        1.0  0.32665  0.56152  0.65434  1.0000
  O   O2        1.0  0.67334  0.43849  0.34566  1.0000
  O   O3        1.0  0.79615  0.40782  0.59339  1.0000
  O   O4        1.0  0.20386  0.59218  0.40661  1.0000
  O   O5        1.0  0.34841  0.35830  0.69674  1.0000
  O   O6        1.0  0.65159  0.64170  0.30326  1.0000
  O   O7        1.0  0.22834  0.39783  0.45721  1.0000
  O   O8        1.0  0.77166  0.60217  0.54279  1.0000
  O   O9        1.0  0.44673  0.46710  0.89267  1.0000
  O   O10       1.0  0.55327  0.53290  0.10733  1.0000
  O   O11       1.0  0.10360  0.42454  0.20611  1.0000
  O   O12       1.0  0.89640  0.57547  0.79389  1.0000
  O   O13       1.0  0.90275  0.30721  0.80434  1.0000
  O   O14       1.0  0.09725  0.69279  0.19566  1.0000
  O   O15       1.0  0.25390  0.22725  0.50967  1.0000
  O   O16       1.0  0.74610  0.77275  0.49033  1.0000
  O   O17       1.0  0.13372  0.25903  0.26535  1.0000
  O   O18       1.0  0.86628  0.74097  0.73465  1.0000
