data_image0
_chemical_formula_structural       Ag4H8C12N12O8
_chemical_formula_sum              "Ag4 H8 C12 N12 O8"
_cell_length_a       6.06568
_cell_length_b       6.85062
_cell_length_c       12.2647
_cell_angle_alpha    89.9968
_cell_angle_beta     89.9999
_cell_angle_gamma    90.0004

_space_group_name_H-M_alt    "P 1"
_space_group_IT_number       1

loop_
  _space_group_symop_operation_xyz
  'x, y, z'

loop_
  _atom_site_type_symbol
  _atom_site_label
  _atom_site_symmetry_multiplicity
  _atom_site_fract_x
  _atom_site_fract_y
  _atom_site_fract_z
  _atom_site_occupancy
  Ag  Ag1       1.0  0.75001  0.04618  0.27371  1.0000
  Ag  Ag2       1.0  0.25005  0.95381  0.72629  1.0000
  Ag  Ag3       1.0  0.24997  0.04611  0.22625  1.0000
  Ag  Ag4       1.0  0.74997  0.95389  0.77370  1.0000
  H   H1        1.0  0.75001  0.84793  0.51078  1.0000
  H   H2        1.0  0.25000  0.15210  0.48925  1.0000
  H   H3        1.0  0.25001  0.84798  0.98922  1.0000
  H   H4        1.0  0.75000  0.15201  0.01075  1.0000
  H   H5        1.0  0.75001  0.44853  0.43591  1.0000
  H   H6        1.0  0.25000  0.55147  0.56413  1.0000
  H   H7        1.0  0.25003  0.44861  0.06410  1.0000
  H   H8        1.0  0.75000  0.55148  0.93589  1.0000
  C   C1        1.0  0.75001  0.00505  0.52158  1.0000
  C   C2        1.0  0.25001  0.99498  0.47843  1.0000
  C   C3        1.0  0.24998  0.00510  0.97843  1.0000
  C   C4        1.0  0.74999  0.99491  0.02157  1.0000
  C   C5        1.0  0.74999  0.28755  0.59673  1.0000
  C   C6        1.0  0.25001  0.71243  0.40330  1.0000
  C   C7        1.0  0.24994  0.28758  0.90324  1.0000
  C   C8        1.0  0.75001  0.71240  0.09674  1.0000
  C   C9        1.0  0.75000  0.31571  0.48390  1.0000
  C   C10       1.0  0.25001  0.68428  0.51612  1.0000
  C   C11       1.0  0.24998  0.31579  0.01609  1.0000
  C   C12       1.0  0.75000  0.68424  0.98391  1.0000
  N   N1        1.0  0.75002  0.13586  0.43758  1.0000
  N   N2        1.0  0.25002  0.86414  0.56240  1.0000
  N   N3        1.0  0.25000  0.13593  0.06240  1.0000
  N   N4        1.0  0.74999  0.86408  0.93760  1.0000
  N   N5        1.0  0.75000  0.09073  0.61927  1.0000
  N   N6        1.0  0.25001  0.90925  0.38075  1.0000
  N   N7        1.0  0.24997  0.09074  0.88073  1.0000
  N   N8        1.0  0.75001  0.90922  0.11924  1.0000
  N   N9        1.0  0.74999  0.43128  0.67892  1.0000
  N   N10       1.0  0.25001  0.56869  0.32109  1.0000
  N   N11       1.0  0.25000  0.43132  0.82107  1.0000
  N   N12       1.0  0.74999  0.56866  0.17892  1.0000
  O   O1        1.0  0.75000  0.60633  0.64894  1.0000
  O   O2        1.0  0.25001  0.39365  0.35102  1.0000
  O   O3        1.0  0.24999  0.60636  0.85107  1.0000
  O   O4        1.0  0.75001  0.39363  0.14898  1.0000
  O   O5        1.0  0.74999  0.37993  0.77695  1.0000
  O   O6        1.0  0.25003  0.62009  0.22308  1.0000
  O   O7        1.0  0.25001  0.37997  0.72303  1.0000
  O   O8        1.0  0.74999  0.62006  0.27693  1.0000
