data_image0
_chemical_formula_structural       Cu2H28C30I2N12O4
_chemical_formula_sum              "Cu2 H28 C30 I2 N12 O4"
_cell_length_a       9.63685
_cell_length_b       10.0653
_cell_length_c       10.1355
_cell_angle_alpha    101.66
_cell_angle_beta     96.3106
_cell_angle_gamma    116.523

_space_group_name_H-M_alt    "P 1"
_space_group_IT_number       1

loop_
  _space_group_symop_operation_xyz
  'x, y, z'

loop_
  _atom_site_type_symbol
  _atom_site_label
  _atom_site_symmetry_multiplicity
  _atom_site_fract_x
  _atom_site_fract_y
  _atom_site_fract_z
  _atom_site_occupancy
  Cu  Cu1       1.0  0.59506  0.14044  0.59949  1.0000
  Cu  Cu2       1.0  0.40494  0.85956  0.40051  1.0000
  H   H1        1.0  0.22387  0.53704  0.66262  1.0000
  H   H2        1.0  0.77613  0.46296  0.33738  1.0000
  H   H3        1.0  0.99459  0.31922  0.47685  1.0000
  H   H4        1.0  0.00541  0.68078  0.52315  1.0000
  H   H5        1.0  0.00755  0.08750  0.36166  1.0000
  H   H6        1.0  0.99246  0.91251  0.63834  1.0000
  H   H7        1.0  0.24978  0.05825  0.42294  1.0000
  H   H8        1.0  0.75022  0.94175  0.57706  1.0000
  H   H9        1.0  0.60695  0.79926  0.76970  1.0000
  H   H10       1.0  0.39304  0.20074  0.23030  1.0000
  H   H11       1.0  0.75142  0.73650  0.80923  1.0000
  H   H12       1.0  0.24858  0.26350  0.19077  1.0000
  H   H13       1.0  0.62633  0.89178  0.02429  1.0000
  H   H14       1.0  0.37367  0.10822  0.97571  1.0000
  H   H15       1.0  0.81045  0.98652  0.97822  1.0000
  H   H16       1.0  0.18955  0.01348  0.02178  1.0000
  H   H17       1.0  0.84276  0.91307  0.19706  1.0000
  H   H18       1.0  0.15724  0.08693  0.80294  1.0000
  H   H19       1.0  0.71111  0.71335  0.10590  1.0000
  H   H20       1.0  0.28889  0.28665  0.89410  1.0000
  H   H21       1.0  0.15555  0.49188  0.33198  1.0000
  H   H22       1.0  0.84445  0.50812  0.66802  1.0000
  H   H23       1.0  0.91530  0.23861  0.20634  1.0000
  H   H24       1.0  0.08471  0.76139  0.79366  1.0000
  H   H25       1.0  0.70387  0.22235  0.03244  1.0000
  H   H26       1.0  0.29613  0.77765  0.96756  1.0000
  H   H27       1.0  0.72036  0.45909  0.97693  1.0000
  H   H28       1.0  0.27964  0.54090  0.02307  1.0000
  C   C1        1.0  0.35755  0.41024  0.64941  1.0000
  C   C2        1.0  0.64245  0.58976  0.35059  1.0000
  C   C3        1.0  0.22712  0.43265  0.61195  1.0000
  C   C4        1.0  0.77288  0.56735  0.38805  1.0000
  C   C5        1.0  0.10282  0.31249  0.50774  1.0000
  C   C6        1.0  0.89719  0.68751  0.49226  1.0000
  C   C7        1.0  0.11042  0.17872  0.44099  1.0000
  C   C8        1.0  0.88958  0.82129  0.55900  1.0000
  C   C9        1.0  0.24269  0.15995  0.47485  1.0000
  C   C10       1.0  0.75732  0.84005  0.52514  1.0000
  C   C11       1.0  0.36784  0.27856  0.58219  1.0000
  C   C12       1.0  0.63216  0.72144  0.41781  1.0000
  C   C13       1.0  0.65919  0.76016  0.84524  1.0000
  C   C14       1.0  0.34081  0.23984  0.15476  1.0000
  C   C15       1.0  0.72217  0.87464  0.98767  1.0000
  C   C16       1.0  0.27783  0.12536  0.01233  1.0000
  C   C17       1.0  0.79591  0.82626  0.09563  1.0000
  C   C18       1.0  0.20409  0.17374  0.90437  1.0000
  C   C19       1.0  0.07091  0.61779  0.22570  1.0000
  C   C20       1.0  0.92909  0.38221  0.77430  1.0000
  C   C21       1.0  0.06155  0.48456  0.25612  1.0000
  C   C22       1.0  0.93844  0.51544  0.74388  1.0000
  C   C23       1.0  0.92804  0.34484  0.18508  1.0000
  C   C24       1.0  0.07196  0.65516  0.81492  1.0000
  C   C25       1.0  0.80572  0.33543  0.08598  1.0000
  C   C26       1.0  0.19428  0.66457  0.91402  1.0000
  C   C27       1.0  0.81197  0.46588  0.05516  1.0000
  C   C28       1.0  0.18803  0.53412  0.94484  1.0000
  C   C29       1.0  0.94654  0.60647  0.12845  1.0000
  C   C30       1.0  0.05346  0.39353  0.87155  1.0000
  I   I1        1.0  0.38123  0.89727  0.66056  1.0000
  I   I2        1.0  0.61877  0.10273  0.33945  1.0000
  N   N1        1.0  0.50935  0.29118  0.64651  1.0000
  N   N2        1.0  0.49065  0.70882  0.35349  1.0000
  N   N3        1.0  0.58308  0.41851  0.75031  1.0000
  N   N4        1.0  0.41692  0.58149  0.24969  1.0000
  N   N5        1.0  0.49488  0.49126  0.75082  1.0000
  N   N6        1.0  0.50511  0.50874  0.24918  1.0000
  N   N7        1.0  0.99709  0.75717  0.12996  1.0000
  N   N8        1.0  0.00291  0.24283  0.87004  1.0000
  N   N9        1.0  0.14089  0.85499  0.21493  1.0000
  N   N10       1.0  0.85910  0.14501  0.78507  1.0000
  N   N11       1.0  0.18739  0.77173  0.27408  1.0000
  N   N12       1.0  0.81261  0.22827  0.72593  1.0000
  O   O1        1.0  0.53303  0.61538  0.86006  1.0000
  O   O2        1.0  0.46697  0.38462  0.13994  1.0000
  O   O3        1.0  0.92812  0.81246  0.04629  1.0000
  O   O4        1.0  0.07188  0.18753  0.95371  1.0000
