data_image0
_chemical_formula_structural       Cd2H20C20N20Cl4
_chemical_formula_sum              "Cd2 H20 C20 N20 Cl4"
_cell_length_a       3.73154
_cell_length_b       9.79259
_cell_length_c       19.4859
_cell_angle_alpha    90.0011
_cell_angle_beta     88.5146
_cell_angle_gamma    90.001

_space_group_name_H-M_alt    "P 1"
_space_group_IT_number       1

loop_
  _space_group_symop_operation_xyz
  'x, y, z'

loop_
  _atom_site_type_symbol
  _atom_site_label
  _atom_site_symmetry_multiplicity
  _atom_site_fract_x
  _atom_site_fract_y
  _atom_site_fract_z
  _atom_site_occupancy
  Cd  Cd1       1.0  0.99998  0.50000  0.50000  1.0000
  Cd  Cd2       1.0  0.99999  1.00000  1.00000  1.0000
  H   H1        1.0  0.87274  0.52980  0.34518  1.0000
  H   H2        1.0  0.12726  0.02979  0.15482  1.0000
  H   H3        1.0  0.12719  0.47021  0.65483  1.0000
  H   H4        1.0  0.87275  0.97020  0.84518  1.0000
  H   H5        1.0  0.58495  0.21625  0.17791  1.0000
  H   H6        1.0  0.41508  0.71625  0.32208  1.0000
  H   H7        1.0  0.41505  0.78377  0.82209  1.0000
  H   H8        1.0  0.58492  0.28375  0.67792  1.0000
  H   H9        1.0  0.61259  0.06184  0.22014  1.0000
  H   H10       1.0  0.38745  0.56184  0.27985  1.0000
  H   H11       1.0  0.38749  0.93817  0.77985  1.0000
  H   H12       1.0  0.61253  0.43816  0.72015  1.0000
  H   H13       1.0  0.16046  0.90907  0.43557  1.0000
  H   H14       1.0  0.83951  0.40907  0.06443  1.0000
  H   H15       1.0  0.83959  0.09094  0.56444  1.0000
  H   H16       1.0  0.16046  0.59092  0.93557  1.0000
  H   H17       1.0  0.01783  0.94324  0.30720  1.0000
  H   H18       1.0  0.98218  0.44324  0.19280  1.0000
  H   H19       1.0  0.98228  0.05677  0.69280  1.0000
  H   H20       1.0  0.01775  0.55676  0.80720  1.0000
  C   C1        1.0  0.87591  0.41870  0.34279  1.0000
  C   C2        1.0  0.12410  0.91869  0.15720  1.0000
  C   C3        1.0  0.12404  0.58130  0.65721  1.0000
  C   C4        1.0  0.87591  0.08130  0.84280  1.0000
  C   C5        1.0  0.77616  0.22406  0.27783  1.0000
  C   C6        1.0  0.22386  0.72406  0.22216  1.0000
  C   C7        1.0  0.22388  0.77595  0.72217  1.0000
  C   C8        1.0  0.77611  0.27593  0.77784  1.0000
  C   C9        1.0  0.08736  0.00563  0.41201  1.0000
  C   C10       1.0  0.91263  0.50562  0.08798  1.0000
  C   C11       1.0  0.91269  0.99438  0.58799  1.0000
  C   C12       1.0  0.08735  0.49437  0.91202  1.0000
  C   C13       1.0  0.90445  0.15014  0.33380  1.0000
  C   C14       1.0  0.09558  0.65014  0.16620  1.0000
  C   C15       1.0  0.09559  0.84987  0.66620  1.0000
  C   C16       1.0  0.90438  0.34985  0.83380  1.0000
  C   C17       1.0  0.98530  0.21783  0.39530  1.0000
  C   C18       1.0  0.01472  0.71784  0.10469  1.0000
  C   C19       1.0  0.01470  0.78217  0.60470  1.0000
  C   C20       1.0  0.98529  0.28216  0.89531  1.0000
  N   N1        1.0  0.78358  0.36262  0.28259  1.0000
  N   N2        1.0  0.21645  0.86261  0.21740  1.0000
  N   N3        1.0  0.21641  0.63739  0.71741  1.0000
  N   N4        1.0  0.78354  0.13739  0.78259  1.0000
  N   N5        1.0  0.96457  0.35595  0.40062  1.0000
  N   N6        1.0  0.03544  0.85595  0.09938  1.0000
  N   N7        1.0  0.03537  0.64405  0.59939  1.0000
  N   N8        1.0  0.96458  0.14404  0.90062  1.0000
  N   N9        1.0  0.64888  0.16444  0.22126  1.0000
  N   N10       1.0  0.35116  0.66444  0.27874  1.0000
  N   N11       1.0  0.35118  0.83557  0.77874  1.0000
  N   N12       1.0  0.64878  0.33555  0.72126  1.0000
  N   N13       1.0  0.09213  0.12585  0.44361  1.0000
  N   N14       1.0  0.90786  0.62585  0.05639  1.0000
  N   N15       1.0  0.90786  0.87415  0.55639  1.0000
  N   N16       1.0  0.09214  0.37414  0.94361  1.0000
  N   N17       1.0  0.97118  0.01357  0.34577  1.0000
  N   N18       1.0  0.02884  0.51356  0.15422  1.0000
  N   N19       1.0  0.02892  0.98644  0.65423  1.0000
  N   N20       1.0  0.97112  0.48643  0.84578  1.0000
  Cl  Cl1       1.0  0.49478  0.65586  0.44153  1.0000
  Cl  Cl2       1.0  0.50521  0.15586  0.05847  1.0000
  Cl  Cl3       1.0  0.50518  0.34415  0.55848  1.0000
  Cl  Cl4       1.0  0.49477  0.84414  0.94153  1.0000
