data_image0
_chemical_formula_structural       Cu2Mo2H18C22N6O10
_chemical_formula_sum              "Cu2 Mo2 H18 C22 N6 O10"
_cell_length_a       6.72394
_cell_length_b       10.06
_cell_length_c       10.176
_cell_angle_alpha    79.1656
_cell_angle_beta     77.5615
_cell_angle_gamma    76.2433

_space_group_name_H-M_alt    "P 1"
_space_group_IT_number       1

loop_
  _space_group_symop_operation_xyz
  'x, y, z'

loop_
  _atom_site_type_symbol
  _atom_site_label
  _atom_site_symmetry_multiplicity
  _atom_site_fract_x
  _atom_site_fract_y
  _atom_site_fract_z
  _atom_site_occupancy
  Cu  Cu1       1.0  0.30409  0.76554  0.57318  1.0000
  Cu  Cu2       1.0  0.69590  0.23446  0.42682  1.0000
  Mo  Mo1       1.0  0.18089  0.15276  0.49566  1.0000
  Mo  Mo2       1.0  0.81910  0.84724  0.50434  1.0000
  H   H1        1.0  0.47015  0.92796  0.72246  1.0000
  H   H2        1.0  0.52986  0.07204  0.27753  1.0000
  H   H3        1.0  0.41011  0.97796  0.95994  1.0000
  H   H4        1.0  0.58990  0.02204  0.04005  1.0000
  H   H5        1.0  0.13927  0.87914  0.13746  1.0000
  H   H6        1.0  0.86074  0.12086  0.86254  1.0000
  H   H7        1.0  0.00992  0.69625  0.82127  1.0000
  H   H8        1.0  0.99007  0.30376  0.17874  1.0000
  H   H9        1.0  0.60850  0.77726  0.31737  1.0000
  H   H10       1.0  0.39149  0.22275  0.68264  1.0000
  H   H11       1.0  0.14990  0.55434  0.48413  1.0000
  H   H12       1.0  0.85007  0.44567  0.51587  1.0000
  H   H13       1.0  0.22673  0.42873  0.28066  1.0000
  H   H14       1.0  0.77327  0.57126  0.71934  1.0000
  H   H15       1.0  0.52191  0.47557  0.09474  1.0000
  H   H16       1.0  0.47813  0.52442  0.90527  1.0000
  H   H17       1.0  0.88224  0.76248  0.18626  1.0000
  H   H18       1.0  0.11777  0.23752  0.81373  1.0000
  C   C1        1.0  0.35478  0.88636  0.80153  1.0000
  C   C2        1.0  0.64522  0.11365  0.19846  1.0000
  C   C3        1.0  0.32074  0.91250  0.93476  1.0000
  C   C4        1.0  0.67927  0.08750  0.06523  1.0000
  C   C5        1.0  0.17103  0.85879  0.03245  1.0000
  C   C6        1.0  0.82899  0.14121  0.96754  1.0000
  C   C7        1.0  0.05293  0.77957  0.99343  1.0000
  C   C8        1.0  0.94708  0.22043  0.00658  1.0000
  C   C9        1.0  0.09648  0.75589  0.85735  1.0000
  C   C10       1.0  0.90352  0.24411  0.14265  1.0000
  C   C11       1.0  0.76038  0.65789  0.07293  1.0000
  C   C12       1.0  0.23964  0.34209  0.92708  1.0000
  C   C13       1.0  0.59201  0.62859  0.19099  1.0000
  C   C14       1.0  0.40800  0.37140  0.80901  1.0000
  C   C15       1.0  0.53286  0.69710  0.30506  1.0000
  C   C16       1.0  0.46715  0.30291  0.69493  1.0000
  C   C17       1.0  0.27230  0.57306  0.39785  1.0000
  C   C18       1.0  0.72769  0.42695  0.60215  1.0000
  C   C19       1.0  0.31665  0.50374  0.28565  1.0000
  C   C20       1.0  0.68334  0.49625  0.71436  1.0000
  C   C21       1.0  0.48017  0.53039  0.18228  1.0000
  C   C22       1.0  0.51984  0.46961  0.81774  1.0000
  N   N1        1.0  0.24508  0.80818  0.76537  1.0000
  N   N2        1.0  0.75490  0.19182  0.23463  1.0000
  N   N3        1.0  0.89521  0.73258  0.09202  1.0000
  N   N4        1.0  0.10479  0.26742  0.90798  1.0000
  N   N5        1.0  0.37799  0.66803  0.40697  1.0000
  N   N6        1.0  0.62201  0.33197  0.59302  1.0000
  O   O1        1.0  0.77002  0.61573  0.96433  1.0000
  O   O2        1.0  0.22998  0.38427  0.03566  1.0000
  O   O3        1.0  0.24797  0.98219  0.45730  1.0000
  O   O4        1.0  0.75201  0.01782  0.54270  1.0000
  O   O5        1.0  0.40243  0.23110  0.44142  1.0000
  O   O6        1.0  0.59757  0.76890  0.55858  1.0000
  O   O7        1.0  0.98096  0.25898  0.40487  1.0000
  O   O8        1.0  0.01903  0.74102  0.59513  1.0000
  O   O9        1.0  0.10296  0.15599  0.67213  1.0000
  O   O10       1.0  0.89704  0.84401  0.32788  1.0000
