data_image0
_chemical_formula_structural       Zn8H16C16O40
_chemical_formula_sum              "Zn8 H16 C16 O40"
_cell_length_a       6.17208
_cell_length_b       8.87561
_cell_length_c       15.41
_cell_angle_alpha    90.0008
_cell_angle_beta     89.9998
_cell_angle_gamma    89.9995

_space_group_name_H-M_alt    "P 1"
_space_group_IT_number       1

loop_
  _space_group_symop_operation_xyz
  'x, y, z'

loop_
  _atom_site_type_symbol
  _atom_site_label
  _atom_site_symmetry_multiplicity
  _atom_site_fract_x
  _atom_site_fract_y
  _atom_site_fract_z
  _atom_site_occupancy
  Zn  Zn1       1.0  0.52474  0.55134  0.33633  1.0000
  Zn  Zn2       1.0  0.97526  0.44867  0.83634  1.0000
  Zn  Zn3       1.0  0.47527  0.05134  0.16367  1.0000
  Zn  Zn4       1.0  0.02473  0.94866  0.66366  1.0000
  Zn  Zn5       1.0  0.47526  0.44866  0.66366  1.0000
  Zn  Zn6       1.0  0.02474  0.55133  0.16366  1.0000
  Zn  Zn7       1.0  0.52473  0.94867  0.83634  1.0000
  Zn  Zn8       1.0  0.97527  0.05134  0.33634  1.0000
  H   H1        1.0  0.86118  0.41241  0.40916  1.0000
  H   H2        1.0  0.63881  0.58760  0.90916  1.0000
  H   H3        1.0  0.13883  0.91239  0.09084  1.0000
  H   H4        1.0  0.36118  0.08759  0.59085  1.0000
  H   H5        1.0  0.13881  0.58759  0.59084  1.0000
  H   H6        1.0  0.36119  0.41240  0.09084  1.0000
  H   H7        1.0  0.86118  0.08760  0.90916  1.0000
  H   H8        1.0  0.63881  0.91240  0.40916  1.0000
  H   H9        1.0  0.76691  0.53626  0.47375  1.0000
  H   H10       1.0  0.73308  0.46374  0.97375  1.0000
  H   H11       1.0  0.23309  0.03626  0.02625  1.0000
  H   H12       1.0  0.26691  0.96373  0.52625  1.0000
  H   H13       1.0  0.23308  0.46375  0.52625  1.0000
  H   H14       1.0  0.26692  0.53626  0.02625  1.0000
  H   H15       1.0  0.76692  0.96374  0.97375  1.0000
  H   H16       1.0  0.73308  0.03626  0.47375  1.0000
  C   C1        1.0  0.34862  0.25849  0.30501  1.0000
  C   C2        1.0  0.15138  0.74152  0.80501  1.0000
  C   C3        1.0  0.65140  0.75848  0.19499  1.0000
  C   C4        1.0  0.84862  0.24152  0.69500  1.0000
  C   C5        1.0  0.65138  0.74151  0.69499  1.0000
  C   C6        1.0  0.84862  0.25848  0.19499  1.0000
  C   C7        1.0  0.34861  0.24152  0.80500  1.0000
  C   C8        1.0  0.15139  0.75848  0.30501  1.0000
  C   C9        1.0  0.22238  0.31049  0.38622  1.0000
  C   C10       1.0  0.27762  0.68953  0.88622  1.0000
  C   C11       1.0  0.77765  0.81048  0.11377  1.0000
  C   C12       1.0  0.72236  0.18952  0.61378  1.0000
  C   C13       1.0  0.77763  0.68952  0.61378  1.0000
  C   C14       1.0  0.72237  0.31048  0.11378  1.0000
  C   C15       1.0  0.22236  0.18952  0.88622  1.0000
  C   C16       1.0  0.27764  0.81048  0.38622  1.0000
  O   O1        1.0  0.48642  0.34926  0.27484  1.0000
  O   O2        1.0  0.01358  0.65075  0.77485  1.0000
  O   O3        1.0  0.51359  0.84925  0.22515  1.0000
  O   O4        1.0  0.98641  0.15075  0.72516  1.0000
  O   O5        1.0  0.51358  0.65074  0.72516  1.0000
  O   O6        1.0  0.98642  0.34925  0.22515  1.0000
  O   O7        1.0  0.48640  0.15075  0.77484  1.0000
  O   O8        1.0  0.01360  0.84926  0.27485  1.0000
  O   O9        1.0  0.29871  0.42360  0.42528  1.0000
  O   O10       1.0  0.20128  0.57642  0.92528  1.0000
  O   O11       1.0  0.70131  0.92358  0.07472  1.0000
  O   O12       1.0  0.79871  0.07641  0.57472  1.0000
  O   O13       1.0  0.70128  0.57641  0.57472  1.0000
  O   O14       1.0  0.79872  0.42358  0.07472  1.0000
  O   O15       1.0  0.29871  0.07642  0.92528  1.0000
  O   O16       1.0  0.20129  0.92359  0.42528  1.0000
  O   O17       1.0  0.30497  0.12913  0.27395  1.0000
  O   O18       1.0  0.19501  0.87088  0.77395  1.0000
  O   O19       1.0  0.69504  0.62913  0.22605  1.0000
  O   O20       1.0  0.80497  0.37086  0.72606  1.0000
  O   O21       1.0  0.69502  0.87086  0.72606  1.0000
  O   O22       1.0  0.80497  0.12912  0.22606  1.0000
  O   O23       1.0  0.30498  0.37086  0.77394  1.0000
  O   O24       1.0  0.19504  0.62913  0.27394  1.0000
  O   O25       1.0  0.04927  0.24146  0.40700  1.0000
  O   O26       1.0  0.45071  0.75855  0.90700  1.0000
  O   O27       1.0  0.95072  0.74145  0.09300  1.0000
  O   O28       1.0  0.54929  0.25855  0.59300  1.0000
  O   O29       1.0  0.95071  0.75854  0.59300  1.0000
  O   O30       1.0  0.54929  0.24145  0.09300  1.0000
  O   O31       1.0  0.04929  0.25856  0.90700  1.0000
  O   O32       1.0  0.45072  0.74146  0.40700  1.0000
  O   O33       1.0  0.79354  0.51285  0.41088  1.0000
  O   O34       1.0  0.70645  0.48715  0.91088  1.0000
  O   O35       1.0  0.20647  0.01285  0.08913  1.0000
  O   O36       1.0  0.29353  0.98714  0.58913  1.0000
  O   O37       1.0  0.20645  0.48715  0.58912  1.0000
  O   O38       1.0  0.29354  0.51284  0.08912  1.0000
  O   O39       1.0  0.79354  0.98715  0.91088  1.0000
  O   O40       1.0  0.70647  0.01285  0.41088  1.0000
