data_image0
_chemical_formula_structural       Cd3H32C12Br6N8O4
_chemical_formula_sum              "Cd3 H32 C12 Br6 N8 O4"
_cell_length_a       7.20811
_cell_length_b       7.51028
_cell_length_c       14.3944
_cell_angle_alpha    70.7699
_cell_angle_beta     87.8262
_cell_angle_gamma    74.9782

_space_group_name_H-M_alt    "P 1"
_space_group_IT_number       1

loop_
  _space_group_symop_operation_xyz
  'x, y, z'

loop_
  _atom_site_type_symbol
  _atom_site_label
  _atom_site_symmetry_multiplicity
  _atom_site_fract_x
  _atom_site_fract_y
  _atom_site_fract_z
  _atom_site_occupancy
  Cd  Cd1       1.0  1.00000  0.99999  0.00001  1.0000
  Cd  Cd2       1.0  0.24095  0.55611  0.43430  1.0000
  Cd  Cd3       1.0  0.75909  0.44388  0.56569  1.0000
  H   H1        1.0  0.32577  0.00457  0.39605  1.0000
  H   H2        1.0  0.67426  0.99541  0.60395  1.0000
  H   H3        1.0  0.08362  0.04183  0.35495  1.0000
  H   H4        1.0  0.91640  0.95814  0.64506  1.0000
  H   H5        1.0  0.53707  0.68598  0.25408  1.0000
  H   H6        1.0  0.46294  0.31403  0.74590  1.0000
  H   H7        1.0  0.58681  0.79646  0.33979  1.0000
  H   H8        1.0  0.41321  0.20355  0.66019  1.0000
  H   H9        1.0  0.02019  0.88985  0.23954  1.0000
  H   H10       1.0  0.97982  0.11012  0.76047  1.0000
  H   H11       1.0  0.21532  0.73849  0.19691  1.0000
  H   H12       1.0  0.78469  0.26151  0.80309  1.0000
  H   H13       1.0  0.54435  0.14722  0.28639  1.0000
  H   H14       1.0  0.45565  0.85280  0.71360  1.0000
  H   H15       1.0  0.46937  0.29037  0.16013  1.0000
  H   H16       1.0  0.53059  0.70964  0.83987  1.0000
  H   H17       1.0  0.40510  0.14053  0.04833  1.0000
  H   H18       1.0  0.59486  0.85949  0.95167  1.0000
  H   H19       1.0  0.43509  0.88050  0.08732  1.0000
  H   H20       1.0  0.56489  0.11952  0.91267  1.0000
  H   H21       1.0  0.97702  0.23727  0.18329  1.0000
  H   H22       1.0  0.02297  0.76271  0.81672  1.0000
  H   H23       1.0  0.14321  0.34288  0.10219  1.0000
  H   H24       1.0  0.85676  0.65712  0.89782  1.0000
  H   H25       1.0  0.14262  0.38441  0.28321  1.0000
  H   H26       1.0  0.85738  0.61557  0.71679  1.0000
  H   H27       1.0  0.96277  0.44777  0.34454  1.0000
  H   H28       1.0  0.03723  0.55225  0.65545  1.0000
  H   H29       1.0  0.91251  0.68937  0.17686  1.0000
  H   H30       1.0  0.08749  0.31064  0.82314  1.0000
  H   H31       1.0  0.73539  0.87950  0.15237  1.0000
  H   H32       1.0  0.26459  0.12053  0.84762  1.0000
  C   C1        1.0  0.23332  0.02182  0.33311  1.0000
  C   C2        1.0  0.76668  0.97816  0.66690  1.0000
  C   C3        1.0  0.49408  0.81654  0.27645  1.0000
  C   C4        1.0  0.50593  0.18346  0.72354  1.0000
  C   C5        1.0  0.17022  0.86920  0.21891  1.0000
  C   C6        1.0  0.82978  0.13079  0.78109  1.0000
  C   C7        1.0  0.45446  0.16373  0.22259  1.0000
  C   C8        1.0  0.54553  0.83627  0.77741  1.0000
  C   C9        1.0  0.39107  0.01153  0.10932  1.0000
  C   C10       1.0  0.60891  0.98848  0.89067  1.0000
  C   C11       1.0  0.12816  0.21507  0.16386  1.0000
  C   C12       1.0  0.87182  0.78492  0.83615  1.0000
  Br  Br1       1.0  0.26677  0.67620  0.00836  1.0000
  Br  Br2       1.0  0.73322  0.32379  0.99165  1.0000
  Br  Br3       1.0  0.87320  0.77349  0.45470  1.0000
  Br  Br4       1.0  0.12681  0.22650  0.54530  1.0000
  Br  Br5       1.0  0.60804  0.33582  0.42074  1.0000
  Br  Br6       1.0  0.39200  0.66417  0.57926  1.0000
  N   N1        1.0  0.29162  0.84123  0.30594  1.0000
  N   N2        1.0  0.70839  0.15876  0.69406  1.0000
  N   N3        1.0  0.18740  0.03862  0.13482  1.0000
  N   N4        1.0  0.81258  0.96138  0.86518  1.0000
  N   N5        1.0  0.25028  0.19422  0.24983  1.0000
  N   N6        1.0  0.74971  0.80577  0.75018  1.0000
  N   N7        1.0  0.51564  0.98677  0.19404  1.0000
  N   N8        1.0  0.48434  0.01325  0.80595  1.0000
  O   O1        1.0  0.05869  0.50031  0.30196  1.0000
  O   O2        1.0  0.94133  0.49969  0.69804  1.0000
  O   O3        1.0  0.83396  0.79638  0.12207  1.0000
  O   O4        1.0  0.16605  0.20363  0.87792  1.0000
