data_image0
_chemical_formula_structural       Zn6H6C24O18
_chemical_formula_sum              "Zn6 H6 C24 O18"
_cell_length_a       6.66841
_cell_length_b       15.177
_cell_length_c       15.1777
_cell_angle_alpha    117.886
_cell_angle_beta     98.4253
_cell_angle_gamma    98.4142

_space_group_name_H-M_alt    "P 1"
_space_group_IT_number       1

loop_
  _space_group_symop_operation_xyz
  'x, y, z'

loop_
  _atom_site_type_symbol
  _atom_site_label
  _atom_site_symmetry_multiplicity
  _atom_site_fract_x
  _atom_site_fract_y
  _atom_site_fract_z
  _atom_site_occupancy
  Zn  Zn1       1.0  0.03559  0.41032  0.73586  1.0000
  Zn  Zn2       1.0  0.62529  0.32549  0.58965  1.0000
  Zn  Zn3       1.0  0.29970  0.26411  0.67448  1.0000
  Zn  Zn4       1.0  0.96441  0.58968  0.26414  1.0000
  Zn  Zn5       1.0  0.37471  0.67451  0.41035  1.0000
  Zn  Zn6       1.0  0.70030  0.73589  0.32552  1.0000
  H   H1        1.0  0.31339  0.46021  0.43650  1.0000
  H   H2        1.0  0.85317  0.97632  0.53991  1.0000
  H   H3        1.0  0.87682  0.56359  0.02364  1.0000
  H   H4        1.0  0.68662  0.53980  0.56350  1.0000
  H   H5        1.0  0.14683  0.02368  0.46009  1.0000
  H   H6        1.0  0.12318  0.43641  0.97636  1.0000
  C   C1        1.0  0.27135  0.40188  0.57089  1.0000
  C   C2        1.0  0.86934  0.16894  0.59810  1.0000
  C   C3        1.0  0.70036  0.42913  0.83100  1.0000
  C   C4        1.0  0.72865  0.59812  0.42911  1.0000
  C   C5        1.0  0.13066  0.83106  0.40190  1.0000
  C   C6        1.0  0.29964  0.57087  0.16900  1.0000
  C   C7        1.0  0.12578  0.45094  0.53663  1.0000
  C   C8        1.0  0.67472  0.08567  0.54907  1.0000
  C   C9        1.0  0.58908  0.46339  0.91432  1.0000
  C   C10       1.0  0.87422  0.54906  0.46337  1.0000
  C   C11       1.0  0.32528  0.91433  0.45093  1.0000
  C   C12       1.0  0.41092  0.53661  0.08568  1.0000
  C   C13       1.0  0.94338  0.47266  0.57338  1.0000
  C   C14       1.0  0.47064  0.10070  0.52729  1.0000
  C   C15       1.0  0.36998  0.42660  0.89931  1.0000
  C   C16       1.0  0.05662  0.52734  0.42662  1.0000
  C   C17       1.0  0.52936  0.89930  0.47271  1.0000
  C   C18       1.0  0.63002  0.57340  0.10069  1.0000
  C   C19       1.0  0.17494  0.47791  0.46429  1.0000
  C   C20       1.0  0.69703  0.98640  0.52219  1.0000
  C   C21       1.0  0.71063  0.53578  0.01360  1.0000
  C   C22       1.0  0.82506  0.52209  0.53571  1.0000
  C   C23       1.0  0.30297  0.01360  0.47781  1.0000
  C   C24       1.0  0.28938  0.46423  0.98640  1.0000
  O   O1        1.0  0.25799  0.39125  0.64973  1.0000
  O   O2        1.0  0.86666  0.25840  0.60867  1.0000
  O   O3        1.0  0.60821  0.35026  0.74156  1.0000
  O   O4        1.0  0.74201  0.60875  0.35027  1.0000
  O   O5        1.0  0.13333  0.74160  0.39133  1.0000
  O   O6        1.0  0.39179  0.64974  0.25844  1.0000
  O   O7        1.0  0.41322  0.37278  0.52387  1.0000
  O   O8        1.0  0.04031  0.15101  0.62720  1.0000
  O   O9        1.0  0.88924  0.47616  0.84891  1.0000
  O   O10       1.0  0.58678  0.62722  0.47613  1.0000
  O   O11       1.0  0.95969  0.84899  0.37280  1.0000
  O   O12       1.0  0.11076  0.52384  0.15109  1.0000
  O   O13       1.0  0.87414  0.44766  0.64036  1.0000
  O   O14       1.0  0.42631  0.19269  0.55230  1.0000
  O   O15       1.0  0.23373  0.35961  0.80732  1.0000
  O   O16       1.0  0.12586  0.55234  0.35964  1.0000
  O   O17       1.0  0.57369  0.80731  0.44770  1.0000
  O   O18       1.0  0.76627  0.64039  0.19268  1.0000
