data_image0
_chemical_formula_structural       Zn6H18C24O24
_chemical_formula_sum              "Zn6 H18 C24 O24"
_cell_length_a       6.85727
_cell_length_b       15.1525
_cell_length_c       15.1563
_cell_angle_alpha    117.797
_cell_angle_beta     98.6576
_cell_angle_gamma    98.6707

_space_group_name_H-M_alt    "P 1"
_space_group_IT_number       1

loop_
  _space_group_symop_operation_xyz
  'x, y, z'

loop_
  _atom_site_type_symbol
  _atom_site_label
  _atom_site_symmetry_multiplicity
  _atom_site_fract_x
  _atom_site_fract_y
  _atom_site_fract_z
  _atom_site_occupancy
  Zn  Zn1       1.0  0.70364  0.73993  0.32364  1.0000
  Zn  Zn2       1.0  0.96352  0.58356  0.26010  1.0000
  Zn  Zn3       1.0  0.37986  0.67633  0.41633  1.0000
  Zn  Zn4       1.0  0.29636  0.26008  0.67636  1.0000
  Zn  Zn5       1.0  0.03648  0.41644  0.73991  1.0000
  Zn  Zn6       1.0  0.62015  0.32367  0.58367  1.0000
  H   H1        1.0  0.15822  0.02529  0.45757  1.0000
  H   H2        1.0  0.13295  0.43238  0.97483  1.0000
  H   H3        1.0  0.70057  0.54249  0.56769  1.0000
  H   H4        1.0  0.84177  0.97471  0.54244  1.0000
  H   H5        1.0  0.86704  0.56762  0.02517  1.0000
  H   H6        1.0  0.29943  0.45751  0.43230  1.0000
  H   H7        1.0  0.51292  0.85484  0.26359  1.0000
  H   H8        1.0  0.65768  0.40862  0.14529  1.0000
  H   H9        1.0  0.24885  0.73660  0.59128  1.0000
  H   H10       1.0  0.48707  0.14515  0.73641  1.0000
  H   H11       1.0  0.34232  0.59138  0.85471  1.0000
  H   H12       1.0  0.75114  0.26340  0.40872  1.0000
  H   H13       1.0  0.36018  0.76451  0.25889  1.0000
  H   H14       1.0  0.59543  0.49444  0.23563  1.0000
  H   H15       1.0  0.10100  0.74118  0.50554  1.0000
  H   H16       1.0  0.63981  0.23549  0.74111  1.0000
  H   H17       1.0  0.40456  0.50556  0.76437  1.0000
  H   H18       1.0  0.89900  0.25881  0.49446  1.0000
  C   C1        1.0  0.14410  0.82769  0.37971  1.0000
  C   C2        1.0  0.31646  0.55187  0.17231  1.0000
  C   C3        1.0  0.76443  0.62030  0.44807  1.0000
  C   C4        1.0  0.85589  0.17230  0.62029  1.0000
  C   C5        1.0  0.68354  0.44813  0.82769  1.0000
  C   C6        1.0  0.23558  0.37969  0.55193  1.0000
  C   C7        1.0  0.33044  0.91394  0.44218  1.0000
  C   C8        1.0  0.41655  0.52818  0.08609  1.0000
  C   C9        1.0  0.88823  0.55784  0.47179  1.0000
  C   C10       1.0  0.66956  0.08607  0.55783  1.0000
  C   C11       1.0  0.58346  0.47183  0.91392  1.0000
  C   C12       1.0  0.11176  0.44217  0.52822  1.0000
  C   C13       1.0  0.30930  0.01442  0.47599  1.0000
  C   C14       1.0  0.29485  0.46162  0.98562  1.0000
  C   C15       1.0  0.83324  0.52403  0.53841  1.0000
  C   C16       1.0  0.69071  0.98558  0.52402  1.0000
  C   C17       1.0  0.70514  0.53839  0.01439  1.0000
  C   C18       1.0  0.16678  0.47597  0.46158  1.0000
  C   C19       1.0  0.52671  0.89807  0.46707  1.0000
  C   C20       1.0  0.62871  0.56889  0.10191  1.0000
  C   C21       1.0  0.05972  0.53290  0.43103  1.0000
  C   C22       1.0  0.47330  0.10192  0.53294  1.0000
  C   C23       1.0  0.37129  0.43110  0.89808  1.0000
  C   C24       1.0  0.94031  0.46710  0.56897  1.0000
  O   O1        1.0  0.97115  0.84814  0.37864  1.0000
  O   O2        1.0  0.12309  0.53037  0.15193  1.0000
  O   O3        1.0  0.59251  0.62141  0.46956  1.0000
  O   O4        1.0  0.02886  0.15187  0.62136  1.0000
  O   O5        1.0  0.87691  0.46963  0.84808  1.0000
  O   O6        1.0  0.40750  0.37859  0.53044  1.0000
  O   O7        1.0  0.16968  0.73588  0.32801  1.0000
  O   O8        1.0  0.43380  0.59187  0.26407  1.0000
  O   O9        1.0  0.84173  0.67201  0.40797  1.0000
  O   O10       1.0  0.83032  0.26413  0.67199  1.0000
  O   O11       1.0  0.56620  0.40812  0.73592  1.0000
  O   O12       1.0  0.15828  0.32799  0.59202  1.0000
  O   O13       1.0  0.56621  0.80523  0.43967  1.0000
  O   O14       1.0  0.76105  0.63433  0.19470  1.0000
  O   O15       1.0  0.12656  0.56019  0.36556  1.0000
  O   O16       1.0  0.43380  0.19477  0.56033  1.0000
  O   O17       1.0  0.23895  0.36568  0.80530  1.0000
  O   O18       1.0  0.87345  0.43981  0.63444  1.0000
  O   O19       1.0  0.48109  0.78042  0.23520  1.0000
  O   O20       1.0  0.70031  0.45472  0.21969  1.0000
  O   O21       1.0  0.24555  0.76491  0.54521  1.0000
  O   O22       1.0  0.51889  0.21957  0.76480  1.0000
  O   O23       1.0  0.29969  0.54528  0.78031  1.0000
  O   O24       1.0  0.75444  0.23509  0.45478  1.0000
