data_image0
_chemical_formula_structural       H44Pb4C32O18
_chemical_formula_sum              "H44 Pb4 C32 O18"
_cell_length_a       9.11555
_cell_length_b       9.74575
_cell_length_c       10.985
_cell_angle_alpha    92.2552
_cell_angle_beta     97.2724
_cell_angle_gamma    105.919

_space_group_name_H-M_alt    "P 1"
_space_group_IT_number       1

loop_
  _space_group_symop_operation_xyz
  'x, y, z'

loop_
  _atom_site_type_symbol
  _atom_site_label
  _atom_site_symmetry_multiplicity
  _atom_site_fract_x
  _atom_site_fract_y
  _atom_site_fract_z
  _atom_site_occupancy
  H   H1        1.0  0.99891  0.74167  0.27365  1.0000
  H   H2        1.0  0.00098  0.25816  0.72639  1.0000
  H   H3        1.0  0.94216  0.69166  0.99185  1.0000
  H   H4        1.0  0.05782  0.30827  0.00818  1.0000
  H   H5        1.0  0.02254  0.58734  0.09336  1.0000
  H   H6        1.0  0.97740  0.41254  0.90666  1.0000
  H   H7        1.0  0.77887  0.51254  0.18659  1.0000
  H   H8        1.0  0.22104  0.48735  0.81338  1.0000
  H   H9        1.0  0.74209  0.46802  0.02771  1.0000
  H   H10       1.0  0.25788  0.53191  0.97226  1.0000
  H   H11       1.0  0.65585  0.68846  0.99374  1.0000
  H   H12       1.0  0.34406  0.31147  0.00625  1.0000
  H   H13       1.0  0.54676  0.58151  0.09504  1.0000
  H   H14       1.0  0.45319  0.41839  0.90495  1.0000
  H   H15       1.0  0.87475  0.91707  0.08241  1.0000
  H   H16       1.0  0.12526  0.08282  0.91762  1.0000
  H   H17       1.0  0.91265  0.95699  0.24430  1.0000
  H   H18       1.0  0.08728  0.04287  0.75574  1.0000
  H   H19       1.0  0.71736  0.73407  0.27532  1.0000
  H   H20       1.0  0.28256  0.26585  0.72468  1.0000
  H   H21       1.0  0.98640  0.57777  0.65364  1.0000
  H   H22       1.0  0.01380  0.42246  0.34630  1.0000
  H   H23       1.0  0.88204  0.72688  0.78687  1.0000
  H   H24       1.0  0.11801  0.27321  0.21312  1.0000
  H   H25       1.0  0.72143  0.71019  0.67130  1.0000
  H   H26       1.0  0.27860  0.28979  0.32868  1.0000
  H   H27       1.0  0.64614  0.53389  0.82279  1.0000
  H   H28       1.0  0.35402  0.46613  0.17725  1.0000
  H   H29       1.0  0.80451  0.46697  0.80679  1.0000
  H   H30       1.0  0.19563  0.53307  0.19322  1.0000
  H   H31       1.0  0.57189  0.30348  0.68743  1.0000
  H   H32       1.0  0.42824  0.69655  0.31261  1.0000
  H   H33       1.0  0.52613  0.44824  0.61284  1.0000
  H   H34       1.0  0.47393  0.55178  0.38725  1.0000
  H   H35       1.0  0.86361  0.51242  0.43075  1.0000
  H   H36       1.0  0.13642  0.48760  0.56925  1.0000
  H   H37       1.0  0.71049  0.57856  0.46170  1.0000
  H   H38       1.0  0.28958  0.42150  0.53831  1.0000
  H   H39       1.0  0.80215  0.33281  0.58856  1.0000
  H   H40       1.0  0.19785  0.66720  0.41137  1.0000
  H   H41       1.0  0.80927  0.20180  0.22099  1.0000
  H   H42       1.0  0.19080  0.79827  0.77899  1.0000
  H   H43       1.0  0.78369  0.17327  0.07246  1.0000
  H   H44       1.0  0.21644  0.82670  0.92752  1.0000
  Pb  Pb1       1.0  0.46351  0.11131  0.16502  1.0000
  Pb  Pb2       1.0  0.53654  0.88851  0.83473  1.0000
  Pb  Pb3       1.0  0.26835  0.01481  0.50533  1.0000
  Pb  Pb4       1.0  0.73103  0.98553  0.49465  1.0000
  C   C1        1.0  0.14989  0.88190  0.17037  1.0000
  C   C2        1.0  0.85021  0.11791  0.82980  1.0000
  C   C3        1.0  0.99301  0.77993  0.18066  1.0000
  C   C4        1.0  0.00698  0.21996  0.81940  1.0000
  C   C5        1.0  0.94057  0.65194  0.08435  1.0000
  C   C6        1.0  0.05940  0.34797  0.91567  1.0000
  C   C7        1.0  0.77861  0.55960  0.09700  1.0000
  C   C8        1.0  0.22134  0.44032  0.90299  1.0000
  C   C9        1.0  0.66316  0.64767  0.08604  1.0000
  C   C10       1.0  0.33679  0.35225  0.91395  1.0000
  C   C11       1.0  0.87654  0.86899  0.17154  1.0000
  C   C12       1.0  0.12344  0.13090  0.82849  1.0000
  C   C13       1.0  0.71333  0.77445  0.18304  1.0000
  C   C14       1.0  0.28663  0.22545  0.81696  1.0000
  C   C15       1.0  0.60638  0.86891  0.17570  1.0000
  C   C16       1.0  0.39361  0.13101  0.82422  1.0000
  C   C17       1.0  0.99149  0.76834  0.56688  1.0000
  C   C18       1.0  0.00846  0.23187  0.43303  1.0000
  C   C19       1.0  0.90065  0.62839  0.61031  1.0000
  C   C20       1.0  0.09945  0.37177  0.38966  1.0000
  C   C21       1.0  0.80586  0.65575  0.71030  1.0000
  C   C22       1.0  0.19423  0.34431  0.28970  1.0000
  C   C23       1.0  0.72013  0.51406  0.75642  1.0000
  C   C24       1.0  0.28001  0.48598  0.24360  1.0000
  C   C25       1.0  0.62169  0.40722  0.65205  1.0000
  C   C26       1.0  0.37841  0.59283  0.34801  1.0000
  C   C27       1.0  0.79670  0.52836  0.50388  1.0000
  C   C28       1.0  0.20339  0.47173  0.49613  1.0000
  C   C29       1.0  0.71552  0.38506  0.54927  1.0000
  C   C30       1.0  0.28452  0.61504  0.45073  1.0000
  C   C31       1.0  0.60936  0.28110  0.44702  1.0000
  C   C32       1.0  0.39051  0.71912  0.55298  1.0000
  O   O1        1.0  0.19044  0.91022  0.06578  1.0000
  O   O2        1.0  0.80957  0.08990  0.93439  1.0000
  O   O3        1.0  0.23573  0.94398  0.27051  1.0000
  O   O4        1.0  0.76460  0.05536  0.72970  1.0000
  O   O5        1.0  0.59506  0.93913  0.27402  1.0000
  O   O6        1.0  0.40496  0.06091  0.72585  1.0000
  O   O7        1.0  0.53279  0.88501  0.07382  1.0000
  O   O8        1.0  0.46722  0.11482  0.92607  1.0000
  O   O9        1.0  0.12561  0.82846  0.62888  1.0000
  O   O10       1.0  0.87425  0.17197  0.37114  1.0000
  O   O11       1.0  0.93754  0.82134  0.47419  1.0000
  O   O12       1.0  0.06243  0.17876  0.52564  1.0000
  O   O13       1.0  0.56281  0.32640  0.34822  1.0000
  O   O14       1.0  0.43705  0.67382  0.65181  1.0000
  O   O15       1.0  0.56502  0.14697  0.46977  1.0000
  O   O16       1.0  0.43469  0.85325  0.53027  1.0000
  O   O17       1.0  0.74939  0.21652  0.14294  1.0000
  O   O18       1.0  0.25067  0.78344  0.85701  1.0000
