data_image0
_chemical_formula_structural       Ag2H20C24S2N2O6
_chemical_formula_sum              "Ag2 H20 C24 S2 N2 O6"
_cell_length_a       5.24277
_cell_length_b       10.8585
_cell_length_c       11.1837
_cell_angle_alpha    119.099
_cell_angle_beta     88.149
_cell_angle_gamma    99.1412

_space_group_name_H-M_alt    "P 1"
_space_group_IT_number       1

loop_
  _space_group_symop_operation_xyz
  'x, y, z'

loop_
  _atom_site_type_symbol
  _atom_site_label
  _atom_site_symmetry_multiplicity
  _atom_site_fract_x
  _atom_site_fract_y
  _atom_site_fract_z
  _atom_site_occupancy
  Ag  Ag1       1.0  0.77043  0.17484  0.05495  1.0000
  Ag  Ag2       1.0  0.22958  0.82516  0.94505  1.0000
  H   H1        1.0  0.64074  0.90511  0.78751  1.0000
  H   H2        1.0  0.35926  0.09490  0.21249  1.0000
  H   H3        1.0  0.77989  0.73102  0.56535  1.0000
  H   H4        1.0  0.22011  0.26898  0.43465  1.0000
  H   H5        1.0  0.22391  0.82347  0.35623  1.0000
  H   H6        1.0  0.77609  0.17653  0.64377  1.0000
  H   H7        1.0  0.07751  0.99549  0.58219  1.0000
  H   H8        1.0  0.92249  0.00451  0.41781  1.0000
  H   H9        1.0  0.58591  0.50328  0.42234  1.0000
  H   H10       1.0  0.41409  0.49672  0.57767  1.0000
  H   H11       1.0  0.86902  0.32382  0.36774  1.0000
  H   H12       1.0  0.13099  0.67618  0.63227  1.0000
  H   H13       1.0  0.21463  0.29342  0.19674  1.0000
  H   H14       1.0  0.78538  0.70659  0.80326  1.0000
  H   H15       1.0  0.23844  0.43151  0.07150  1.0000
  H   H16       1.0  0.76156  0.56849  0.92850  1.0000
  H   H17       1.0  0.96608  0.61984  0.13570  1.0000
  H   H18       1.0  0.03392  0.38016  0.86429  1.0000
  H   H19       1.0  0.57763  0.70656  0.24281  1.0000
  H   H20       1.0  0.42236  0.29343  0.75718  1.0000
  C   C1        1.0  0.35112  0.96245  0.69868  1.0000
  C   C2        1.0  0.64888  0.03755  0.30132  1.0000
  C   C3        1.0  0.54513  0.88533  0.69346  1.0000
  C   C4        1.0  0.45487  0.11467  0.30655  1.0000
  C   C5        1.0  0.62264  0.78640  0.56796  1.0000
  C   C6        1.0  0.37736  0.21360  0.43205  1.0000
  C   C7        1.0  0.51284  0.76455  0.44430  1.0000
  C   C8        1.0  0.48716  0.23545  0.55570  1.0000
  C   C9        1.0  0.31087  0.83939  0.45096  1.0000
  C   C10       1.0  0.68913  0.16062  0.54904  1.0000
  C   C11       1.0  0.23176  0.93703  0.57679  1.0000
  C   C12       1.0  0.76823  0.06297  0.42321  1.0000
  C   C13       1.0  0.76003  0.57617  0.28561  1.0000
  C   C14       1.0  0.23996  0.42383  0.71438  1.0000
  C   C15       1.0  0.73313  0.48994  0.34824  1.0000
  C   C16       1.0  0.26687  0.51006  0.65176  1.0000
  C   C17       1.0  0.88792  0.38549  0.31391  1.0000
  C   C18       1.0  0.11209  0.61451  0.68609  1.0000
  C   C19       1.0  0.07089  0.36164  0.21219  1.0000
  C   C20       1.0  0.92911  0.63836  0.78781  1.0000
  C   C21       1.0  0.09376  0.44696  0.14755  1.0000
  C   C22       1.0  0.90623  0.55303  0.85244  1.0000
  C   C23       1.0  0.94118  0.55198  0.18330  1.0000
  C   C24       1.0  0.05881  0.44801  0.81670  1.0000
  S   S1        1.0  0.27843  0.10390  0.85637  1.0000
  S   S2        1.0  0.72157  0.89610  0.14364  1.0000
  N   N1        1.0  0.60786  0.68081  0.31804  1.0000
  N   N2        1.0  0.39213  0.31919  0.68196  1.0000
  O   O1        1.0  0.45696  0.23462  0.88143  1.0000
  O   O2        1.0  0.54302  0.76539  0.11857  1.0000
  O   O3        1.0  0.33027  0.06643  0.96470  1.0000
  O   O4        1.0  0.66974  0.93357  0.03530  1.0000
  O   O5        1.0  0.00505  0.11354  0.84369  1.0000
  O   O6        1.0  0.99494  0.88645  0.15631  1.0000
