data_image0
_chemical_formula_structural       Co4P2H14C16O12
_chemical_formula_sum              "Co4 P2 H14 C16 O12"
_cell_length_a       5.23257
_cell_length_b       7.39296
_cell_length_c       12.5275
_cell_angle_alpha    72.8384
_cell_angle_beta     89.1144
_cell_angle_gamma    87.0219

_space_group_name_H-M_alt    "P 1"
_space_group_IT_number       1

loop_
  _space_group_symop_operation_xyz
  'x, y, z'

loop_
  _atom_site_type_symbol
  _atom_site_label
  _atom_site_symmetry_multiplicity
  _atom_site_fract_x
  _atom_site_fract_y
  _atom_site_fract_z
  _atom_site_occupancy
  Co  Co1       1.0  0.62158  0.86565  0.93004  1.0000
  Co  Co2       1.0  0.12163  0.79587  0.06993  1.0000
  Co  Co3       1.0  0.01722  0.23197  0.01333  1.0000
  Co  Co4       1.0  0.51697  0.24560  0.98672  1.0000
  P   P1        1.0  0.16959  0.65078  0.85996  1.0000
  P   P2        1.0  0.66961  0.51072  0.14002  1.0000
  H   H1        1.0  0.39148  0.70375  0.59676  1.0000
  H   H2        1.0  0.89160  0.30048  0.40333  1.0000
  H   H3        1.0  0.62615  0.48208  0.51262  1.0000
  H   H4        1.0  0.12590  0.99456  0.48743  1.0000
  H   H5        1.0  0.48847  0.15007  0.55106  1.0000
  H   H6        1.0  0.98821  0.70088  0.44896  1.0000
  H   H7        1.0  0.11301  0.04837  0.67532  1.0000
  H   H8        1.0  0.61295  0.72357  0.32450  1.0000
  H   H9        1.0  0.79647  0.62253  0.75991  1.0000
  H   H10       1.0  0.29661  0.38238  0.24018  1.0000
  H   H11       1.0  0.00309  0.79081  0.67636  1.0000
  H   H12       1.0  0.50315  0.46707  0.32365  1.0000
  H   H13       1.0  0.73785  0.94361  0.12507  1.0000
  H   H14       1.0  0.23798  0.06862  0.87495  1.0000
  C   C1        1.0  0.11858  0.50439  0.68463  1.0000
  C   C2        1.0  0.61867  0.18892  0.31547  1.0000
  C   C3        1.0  0.32806  0.55972  0.61310  1.0000
  C   C4        1.0  0.82818  0.17275  0.38697  1.0000
  C   C5        1.0  0.45984  0.43497  0.56491  1.0000
  C   C6        1.0  0.95970  0.99967  0.43511  1.0000
  C   C7        1.0  0.38215  0.25001  0.58591  1.0000
  C   C8        1.0  0.88203  0.83571  0.41405  1.0000
  C   C9        1.0  0.17383  0.19288  0.65553  1.0000
  C   C10       1.0  0.67382  0.84822  0.34439  1.0000
  C   C11       1.0  0.04160  0.31557  0.70678  1.0000
  C   C12       1.0  0.54185  0.02229  0.29319  1.0000
  C   C13       1.0  0.83786  0.23030  0.78890  1.0000
  C   C14       1.0  0.33812  0.01926  0.21108  1.0000
  C   C15       1.0  0.99606  0.64798  0.73531  1.0000
  C   C16       1.0  0.49621  0.38318  0.26471  1.0000
  O   O1        1.0  0.41180  0.76020  0.82602  1.0000
  O   O2        1.0  0.91170  0.58634  0.17394  1.0000
  O   O3        1.0  0.98273  0.73719  0.93173  1.0000
  O   O4        1.0  0.48261  0.66872  0.06823  1.0000
  O   O5        1.0  0.23456  0.43886  0.92685  1.0000
  O   O6        1.0  0.73460  0.36576  0.07303  1.0000
  O   O7        1.0  0.76868  0.32030  0.86040  1.0000
  O   O8        1.0  0.26859  0.18079  0.13969  1.0000
  O   O9        1.0  0.75381  0.07294  0.78979  1.0000
  O   O10       1.0  0.25421  0.86275  0.21018  1.0000
  O   O11       1.0  0.79965  0.99308  0.04830  1.0000
  O   O12       1.0  0.29975  0.04126  0.95172  1.0000
