data_image0
_chemical_formula_structural       H16Pb2C20O12
_chemical_formula_sum              "H16 Pb2 C20 O12"
_cell_length_a       7.17046
_cell_length_b       7.17025
_cell_length_c       10.0267
_cell_angle_alpha    81.4026
_cell_angle_beta     81.3991
_cell_angle_gamma    86.9379

_space_group_name_H-M_alt    "P 1"
_space_group_IT_number       1

loop_
  _space_group_symop_operation_xyz
  'x, y, z'

loop_
  _atom_site_type_symbol
  _atom_site_label
  _atom_site_symmetry_multiplicity
  _atom_site_fract_x
  _atom_site_fract_y
  _atom_site_fract_z
  _atom_site_occupancy
  H   H1        1.0  0.45558  0.18268  0.03658  1.0000
  H   H2        1.0  0.81732  0.54447  0.46335  1.0000
  H   H3        1.0  0.54450  0.81728  0.96343  1.0000
  H   H4        1.0  0.18275  0.45551  0.53661  1.0000
  H   H5        1.0  0.25191  0.40794  0.94489  1.0000
  H   H6        1.0  0.59208  0.74811  0.55510  1.0000
  H   H7        1.0  0.74813  0.59207  0.05511  1.0000
  H   H8        1.0  0.40792  0.25185  0.44490  1.0000
  H   H9        1.0  0.95990  0.31909  0.07152  1.0000
  H   H10       1.0  0.68091  0.04010  0.42847  1.0000
  H   H11       1.0  0.04012  0.68095  0.92850  1.0000
  H   H12       1.0  0.31902  0.95988  0.57152  1.0000
  H   H13       1.0  0.28735  0.91991  0.84450  1.0000
  H   H14       1.0  0.08005  0.71266  0.65551  1.0000
  H   H15       1.0  0.71266  0.08014  0.15550  1.0000
  H   H16       1.0  0.91988  0.28734  0.34450  1.0000
  Pb  Pb1       1.0  0.75196  0.24807  0.74993  1.0000
  Pb  Pb2       1.0  0.24803  0.75196  0.25004  1.0000
  C   C1        1.0  0.28993  0.27804  0.89893  1.0000
  C   C2        1.0  0.72196  0.71008  0.60106  1.0000
  C   C3        1.0  0.71014  0.72200  0.10107  1.0000
  C   C4        1.0  0.27800  0.28989  0.39895  1.0000
  C   C5        1.0  0.30163  0.33119  0.74414  1.0000
  C   C6        1.0  0.66882  0.69836  0.75587  1.0000
  C   C7        1.0  0.69846  0.66884  0.25584  1.0000
  C   C8        1.0  0.33113  0.30158  0.24416  1.0000
  C   C9        1.0  0.13806  0.13546  0.95104  1.0000
  C   C10       1.0  0.86455  0.86196  0.54897  1.0000
  C   C11       1.0  0.86197  0.86459  0.04894  1.0000
  C   C12       1.0  0.13539  0.13803  0.45107  1.0000
  C   C13       1.0  0.97652  0.17963  0.03917  1.0000
  C   C14       1.0  0.82037  0.02349  0.46080  1.0000
  C   C15       1.0  0.02352  0.82040  0.96084  1.0000
  C   C16       1.0  0.17958  0.97647  0.53915  1.0000
  C   C17       1.0  0.16062  0.95480  0.91216  1.0000
  C   C18       1.0  0.04517  0.83941  0.58786  1.0000
  C   C19       1.0  0.83938  0.04528  0.08783  1.0000
  C   C20       1.0  0.95473  0.16063  0.41218  1.0000
  O   O1        1.0  0.46750  0.20369  0.93299  1.0000
  O   O2        1.0  0.79628  0.53252  0.56695  1.0000
  O   O3        1.0  0.53255  0.79633  0.06703  1.0000
  O   O4        1.0  0.20369  0.46746  0.43302  1.0000
  O   O5        1.0  0.15176  0.39985  0.70052  1.0000
  O   O6        1.0  0.60018  0.84822  0.79951  1.0000
  O   O7        1.0  0.84830  0.60017  0.29948  1.0000
  O   O8        1.0  0.39979  0.15173  0.20052  1.0000
  O   O9        1.0  0.45632  0.30457  0.66743  1.0000
  O   O10       1.0  0.69539  0.54364  0.83255  1.0000
  O   O11       1.0  0.54371  0.69539  0.33253  1.0000
  O   O12       1.0  0.30454  0.45631  0.16749  1.0000
