data_image0
_chemical_formula_structural       Cs4H28C32O12
_chemical_formula_sum              "Cs4 H28 C32 O12"
_cell_length_a       7.21775
_cell_length_b       7.4668
_cell_length_c       17.276
_cell_angle_alpha    89.9999
_cell_angle_beta     89.9991
_cell_angle_gamma    89.9999

_space_group_name_H-M_alt    "P 1"
_space_group_IT_number       1

loop_
  _space_group_symop_operation_xyz
  'x, y, z'

loop_
  _atom_site_type_symbol
  _atom_site_label
  _atom_site_symmetry_multiplicity
  _atom_site_fract_x
  _atom_site_fract_y
  _atom_site_fract_z
  _atom_site_occupancy
  Cs  Cs1       1.0  0.85776  0.02909  0.57679  1.0000
  Cs  Cs2       1.0  0.35777  0.97092  0.42322  1.0000
  Cs  Cs3       1.0  0.35777  0.47092  0.57679  1.0000
  Cs  Cs4       1.0  0.85777  0.52909  0.42321  1.0000
  H   H1        1.0  0.50761  0.79236  0.84631  1.0000
  H   H2        1.0  0.00761  0.20762  0.15369  1.0000
  H   H3        1.0  0.00763  0.70763  0.84631  1.0000
  H   H4        1.0  0.50762  0.29238  0.15369  1.0000
  H   H5        1.0  0.67657  0.77012  0.96936  1.0000
  H   H6        1.0  0.17657  0.22987  0.03064  1.0000
  H   H7        1.0  0.17658  0.72987  0.96937  1.0000
  H   H8        1.0  0.67658  0.27012  0.03064  1.0000
  H   H9        1.0  0.94247  0.97227  0.99802  1.0000
  H   H10       1.0  0.44247  0.02772  0.00198  1.0000
  H   H11       1.0  0.44248  0.52771  0.99802  1.0000
  H   H12       1.0  0.94249  0.47227  0.00198  1.0000
  H   H13       1.0  0.04745  0.19051  0.89709  1.0000
  H   H14       1.0  0.54746  0.80947  0.10291  1.0000
  H   H15       1.0  0.54745  0.30946  0.89709  1.0000
  H   H16       1.0  0.04746  0.69052  0.10291  1.0000
  H   H17       1.0  0.88056  0.21167  0.77187  1.0000
  H   H18       1.0  0.38057  0.78832  0.22813  1.0000
  H   H19       1.0  0.38056  0.28832  0.77187  1.0000
  H   H20       1.0  0.88055  0.71168  0.22813  1.0000
  H   H21       1.0  0.33000  0.93882  0.75701  1.0000
  H   H22       1.0  0.83001  0.06118  0.24299  1.0000
  H   H23       1.0  0.83000  0.56119  0.75701  1.0000
  H   H24       1.0  0.32999  0.43884  0.24299  1.0000
  H   H25       1.0  0.48274  0.77690  0.71542  1.0000
  H   H26       1.0  0.98276  0.22310  0.28457  1.0000
  H   H27       1.0  0.98276  0.72311  0.71542  1.0000
  H   H28       1.0  0.48274  0.27691  0.28457  1.0000
  C   C1        1.0  0.68245  0.00583  0.80116  1.0000
  C   C2        1.0  0.18244  0.99415  0.19884  1.0000
  C   C3        1.0  0.18245  0.49416  0.80116  1.0000
  C   C4        1.0  0.68244  0.50584  0.19884  1.0000
  C   C5        1.0  0.62515  0.88037  0.85653  1.0000
  C   C6        1.0  0.12516  0.11962  0.14347  1.0000
  C   C7        1.0  0.12516  0.61963  0.85653  1.0000
  C   C8        1.0  0.62516  0.38037  0.14347  1.0000
  C   C9        1.0  0.72066  0.86909  0.92684  1.0000
  C   C10       1.0  0.22067  0.13091  0.07316  1.0000
  C   C11       1.0  0.22067  0.63091  0.92684  1.0000
  C   C12       1.0  0.72067  0.36909  0.07317  1.0000
  C   C13       1.0  0.87059  0.98086  0.94272  1.0000
  C   C14       1.0  0.37059  0.01912  0.05727  1.0000
  C   C15       1.0  0.37059  0.51913  0.94272  1.0000
  C   C16       1.0  0.87060  0.48086  0.05728  1.0000
  C   C17       1.0  0.92867  0.10367  0.88647  1.0000
  C   C18       1.0  0.42867  0.89632  0.11352  1.0000
  C   C19       1.0  0.42867  0.39632  0.88648  1.0000
  C   C20       1.0  0.92868  0.60368  0.11353  1.0000
  C   C21       1.0  0.83605  0.11635  0.81594  1.0000
  C   C22       1.0  0.33606  0.88364  0.18406  1.0000
  C   C23       1.0  0.33605  0.38364  0.81594  1.0000
  C   C24       1.0  0.83605  0.61636  0.18406  1.0000
  C   C25       1.0  0.44072  0.91863  0.71382  1.0000
  C   C26       1.0  0.94072  0.08137  0.28618  1.0000
  C   C27       1.0  0.94073  0.58138  0.71382  1.0000
  C   C28       1.0  0.44071  0.41863  0.28618  1.0000
  C   C29       1.0  0.36347  0.95872  0.63294  1.0000
  C   C30       1.0  0.86345  0.04130  0.36705  1.0000
  C   C31       1.0  0.86347  0.54129  0.63295  1.0000
  C   C32       1.0  0.36346  0.45870  0.36706  1.0000
  O   O1        1.0  0.59694  0.03073  0.73094  1.0000
  O   O2        1.0  0.09694  0.96927  0.26906  1.0000
  O   O3        1.0  0.09695  0.46927  0.73094  1.0000
  O   O4        1.0  0.59693  0.53074  0.26906  1.0000
  O   O5        1.0  0.43496  0.08319  0.59302  1.0000
  O   O6        1.0  0.93494  0.91685  0.40699  1.0000
  O   O7        1.0  0.93496  0.41682  0.59302  1.0000
  O   O8        1.0  0.43494  0.58317  0.40699  1.0000
  O   O9        1.0  0.23020  0.85800  0.61266  1.0000
  O   O10       1.0  0.73019  0.14205  0.38734  1.0000
  O   O11       1.0  0.73021  0.64203  0.61265  1.0000
  O   O12       1.0  0.23020  0.35797  0.38734  1.0000
