data_image0
_chemical_formula_structural       La2H32C30O16
_chemical_formula_sum              "La2 H32 C30 O16"
_cell_length_a       8.86929
_cell_length_b       10.816
_cell_length_c       11.2847
_cell_angle_alpha    103.765
_cell_angle_beta     102.848
_cell_angle_gamma    111.729

_space_group_name_H-M_alt    "P 1"
_space_group_IT_number       1

loop_
  _space_group_symop_operation_xyz
  'x, y, z'

loop_
  _atom_site_type_symbol
  _atom_site_label
  _atom_site_symmetry_multiplicity
  _atom_site_fract_x
  _atom_site_fract_y
  _atom_site_fract_z
  _atom_site_occupancy
  La  La1       1.0  0.75128  0.51620  0.47688  1.0000
  La  La2       1.0  0.24873  0.48382  0.52312  1.0000
  H   H1        1.0  0.49027  0.59310  0.31152  1.0000
  H   H2        1.0  0.50972  0.40690  0.68848  1.0000
  H   H3        1.0  0.67991  0.70006  0.32216  1.0000
  H   H4        1.0  0.32008  0.29994  0.67783  1.0000
  H   H5        1.0  0.97249  0.80699  0.52597  1.0000
  H   H6        1.0  0.02751  0.19301  0.47403  1.0000
  H   H7        1.0  0.08395  0.74558  0.46020  1.0000
  H   H8        1.0  0.91605  0.25443  0.53980  1.0000
  H   H9        1.0  0.89603  0.29873  0.10018  1.0000
  H   H10       1.0  0.10402  0.70129  0.89984  1.0000
  H   H11       1.0  0.93051  0.20344  0.20137  1.0000
  H   H12       1.0  0.06953  0.79660  0.79866  1.0000
  H   H13       1.0  0.68951  0.98590  0.18928  1.0000
  H   H14       1.0  0.31055  0.01413  0.81075  1.0000
  H   H15       1.0  0.97727  0.12817  0.84714  1.0000
  H   H16       1.0  0.02275  0.87181  0.15286  1.0000
  H   H17       1.0  0.60023  0.21664  0.94269  1.0000
  H   H18       1.0  0.39983  0.78339  0.05733  1.0000
  H   H19       1.0  0.68579  0.94759  0.72197  1.0000
  H   H20       1.0  0.31422  0.05242  0.27804  1.0000
  H   H21       1.0  0.57702  0.81916  0.78442  1.0000
  H   H22       1.0  0.42298  0.18083  0.21558  1.0000
  H   H23       1.0  0.76561  0.76061  0.95258  1.0000
  H   H24       1.0  0.23440  0.23938  0.04742  1.0000
  H   H25       1.0  0.12842  0.37789  0.86902  1.0000
  H   H26       1.0  0.87153  0.62209  0.13096  1.0000
  H   H27       1.0  0.68745  0.43534  0.91659  1.0000
  H   H28       1.0  0.31250  0.56464  0.08339  1.0000
  H   H29       1.0  0.65894  0.20435  0.75130  1.0000
  H   H30       1.0  0.34100  0.79566  0.24869  1.0000
  H   H31       1.0  0.84560  0.21017  0.71622  1.0000
  H   H32       1.0  0.15430  0.78977  0.28376  1.0000
  C   C1        1.0  0.70371  0.75449  0.65906  1.0000
  C   C2        1.0  0.29629  0.24550  0.34092  1.0000
  C   C3        1.0  0.82342  0.34321  0.26521  1.0000
  C   C4        1.0  0.17661  0.65680  0.73478  1.0000
  C   C5        1.0  0.73840  0.33518  0.64170  1.0000
  C   C6        1.0  0.26157  0.66481  0.35828  1.0000
  C   C7        1.0  0.66540  0.11476  0.07406  1.0000
  C   C8        1.0  0.33466  0.88526  0.92596  1.0000
  C   C9        1.0  0.83765  0.23844  0.15758  1.0000
  C   C10       1.0  0.16241  0.76161  0.84246  1.0000
  C   C11       1.0  0.60603  0.99241  0.10623  1.0000
  C   C12       1.0  0.39402  0.00760  0.89378  1.0000
  C   C13       1.0  0.85295  0.93700  0.88574  1.0000
  C   C14       1.0  0.14706  0.06298  0.11425  1.0000
  C   C15       1.0  0.98688  0.07144  0.91426  1.0000
  C   C16       1.0  0.01309  0.92853  0.08573  1.0000
  C   C17       1.0  0.55676  0.12060  0.96691  1.0000
  C   C18       1.0  0.44329  0.87940  0.03310  1.0000
  C   C19       1.0  0.69631  0.86767  0.76393  1.0000
  C   C20       1.0  0.30371  0.13235  0.23610  1.0000
  C   C21       1.0  0.86814  0.86599  0.97324  1.0000
  C   C22       1.0  0.13187  0.13398  0.02674  1.0000
  C   C23       1.0  0.89384  0.39094  0.87803  1.0000
  C   C24       1.0  0.10612  0.60905  0.12196  1.0000
  C   C25       1.0  0.07096  0.43031  0.92672  1.0000
  C   C26       1.0  0.92898  0.56966  0.07325  1.0000
  C   C27       1.0  0.82458  0.46274  0.95272  1.0000
  C   C28       1.0  0.17537  0.53724  0.04725  1.0000
  C   C29       1.0  0.78253  0.27602  0.74696  1.0000
  C   C30       1.0  0.21745  0.72397  0.25307  1.0000
  O   O1        1.0  0.56737  0.63752  0.59086  1.0000
  O   O2        1.0  0.43261  0.36247  0.40913  1.0000
  O   O3        1.0  0.95595  0.42449  0.36951  1.0000
  O   O4        1.0  0.04404  0.57552  0.63050  1.0000
  O   O5        1.0  0.74829  0.28621  0.53064  1.0000
  O   O6        1.0  0.25171  0.71377  0.46935  1.0000
  O   O7        1.0  0.84525  0.77518  0.63906  1.0000
  O   O8        1.0  0.15477  0.22483  0.36095  1.0000
  O   O9        1.0  0.69416  0.43563  0.66696  1.0000
  O   O10       1.0  0.30581  0.56437  0.33304  1.0000
  O   O11       1.0  0.68263  0.35197  0.25321  1.0000
  O   O12       1.0  0.31741  0.64804  0.74678  1.0000
  O   O13       1.0  0.60672  0.60246  0.31086  1.0000
  O   O14       1.0  0.39327  0.39755  0.68914  1.0000
  O   O15       1.0  0.96688  0.74379  0.44503  1.0000
  O   O16       1.0  0.03311  0.25622  0.55497  1.0000
