data_image0
_chemical_formula_structural       Mn4H16C28N4O20
_chemical_formula_sum              "Mn4 H16 C28 N4 O20"
_cell_length_a       5.34266
_cell_length_b       11.2585
_cell_length_c       12.9519
_cell_angle_alpha    104.21
_cell_angle_beta     89.9931
_cell_angle_gamma    89.9998

_space_group_name_H-M_alt    "P 1"
_space_group_IT_number       1

loop_
  _space_group_symop_operation_xyz
  'x, y, z'

loop_
  _atom_site_type_symbol
  _atom_site_label
  _atom_site_symmetry_multiplicity
  _atom_site_fract_x
  _atom_site_fract_y
  _atom_site_fract_z
  _atom_site_occupancy
  Mn  Mn1       1.0  0.73566  0.07600  0.09048  1.0000
  Mn  Mn2       1.0  0.23550  0.42393  0.40950  1.0000
  Mn  Mn3       1.0  0.26428  0.92405  0.90949  1.0000
  Mn  Mn4       1.0  0.76440  0.57602  0.59059  1.0000
  H   H1        1.0  0.26233  0.16564  0.02918  1.0000
  H   H2        1.0  0.76248  0.33438  0.47084  1.0000
  H   H3        1.0  0.73761  0.83436  0.97081  1.0000
  H   H4        1.0  0.23766  0.66565  0.52918  1.0000
  H   H5        1.0  0.48562  0.15576  0.93687  1.0000
  H   H6        1.0  0.98606  0.34430  0.56318  1.0000
  H   H7        1.0  0.51436  0.84425  0.06312  1.0000
  H   H8        1.0  0.01433  0.65566  0.43683  1.0000
  H   H9        1.0  0.25265  0.88473  0.35565  1.0000
  H   H10       1.0  0.75251  0.61526  0.14432  1.0000
  H   H11       1.0  0.74727  0.11528  0.64435  1.0000
  H   H12       1.0  0.24742  0.38473  0.85566  1.0000
  H   H13       1.0  0.65183  0.13226  0.49874  1.0000
  H   H14       1.0  0.15194  0.36776  0.00120  1.0000
  H   H15       1.0  0.34811  0.86774  0.50119  1.0000
  H   H16       1.0  0.84802  0.63228  0.99884  1.0000
  C   C1        1.0  0.02026  0.96054  0.25531  1.0000
  C   C2        1.0  0.52017  0.53949  0.24471  1.0000
  C   C3        1.0  0.97974  0.03948  0.74466  1.0000
  C   C4        1.0  0.47988  0.46051  0.75531  1.0000
  C   C5        1.0  0.09300  0.94418  0.35409  1.0000
  C   C6        1.0  0.59290  0.55583  0.14591  1.0000
  C   C7        1.0  0.90699  0.05586  0.64590  1.0000
  C   C8        1.0  0.40703  0.44419  0.85409  1.0000
  C   C9        1.0  0.96326  0.00542  0.44631  1.0000
  C   C10       1.0  0.46326  0.49455  0.05369  1.0000
  C   C11       1.0  0.03677  0.99458  0.55369  1.0000
  C   C12       1.0  0.53672  0.50546  0.94632  1.0000
  C   C13       1.0  0.76259  0.08032  0.43243  1.0000
  C   C14       1.0  0.26267  0.41963  0.06756  1.0000
  C   C15       1.0  0.23737  0.91963  0.56754  1.0000
  C   C16       1.0  0.73731  0.58042  0.93247  1.0000
  C   C17       1.0  0.70277  0.09189  0.33087  1.0000
  C   C18       1.0  0.20290  0.40804  0.16912  1.0000
  C   C19       1.0  0.29712  0.90804  0.66911  1.0000
  C   C20       1.0  0.79713  0.59199  0.83090  1.0000
  C   C21       1.0  0.16692  0.90910  0.15492  1.0000
  C   C22       1.0  0.66687  0.59092  0.34508  1.0000
  C   C23       1.0  0.83306  0.09092  0.84505  1.0000
  C   C24       1.0  0.33327  0.40906  0.65493  1.0000
  C   C25       1.0  0.50971  0.18110  0.31116  1.0000
  C   C26       1.0  0.00989  0.31888  0.18885  1.0000
  C   C27       1.0  0.49019  0.81887  0.68884  1.0000
  C   C28       1.0  0.99017  0.68114  0.81117  1.0000
  N   N1        1.0  0.82618  0.03173  0.24380  1.0000
  N   N2        1.0  0.32622  0.46818  0.25620  1.0000
  N   N3        1.0  0.17373  0.96823  0.75617  1.0000
  N   N4        1.0  0.67389  0.53178  0.74384  1.0000
  O   O1        1.0  0.34102  0.83379  0.15694  1.0000
  O   O2        1.0  0.84100  0.66619  0.34303  1.0000
  O   O3        1.0  0.65894  0.16620  0.84300  1.0000
  O   O4        1.0  0.15911  0.33380  0.65699  1.0000
  O   O5        1.0  0.40455  0.11731  0.99294  1.0000
  O   O6        1.0  0.90467  0.38269  0.50713  1.0000
  O   O7        1.0  0.59533  0.88269  0.00702  1.0000
  O   O8        1.0  0.09533  0.61736  0.49300  1.0000
  O   O9        1.0  0.10457  0.95196  0.07578  1.0000
  O   O10       1.0  0.60460  0.54799  0.42419  1.0000
  O   O11       1.0  0.89537  0.04806  0.92419  1.0000
  O   O12       1.0  0.39555  0.45194  0.57578  1.0000
  O   O13       1.0  0.43783  0.26058  0.39436  1.0000
  O   O14       1.0  0.93814  0.23935  0.10564  1.0000
  O   O15       1.0  0.56200  0.73937  0.60563  1.0000
  O   O16       1.0  0.06191  0.76065  0.89438  1.0000
  O   O17       1.0  0.44323  0.17228  0.21639  1.0000
  O   O18       1.0  0.94325  0.32777  0.28362  1.0000
  O   O19       1.0  0.55683  0.82772  0.78360  1.0000
  O   O20       1.0  0.05685  0.67226  0.71639  1.0000
