data_image0
_chemical_formula_structural       Cd2H40C42N4O10
_chemical_formula_sum              "Cd2 H40 C42 N4 O10"
_cell_length_a       8.6034
_cell_length_b       9.70676
_cell_length_c       12.7093
_cell_angle_alpha    69.7842
_cell_angle_beta     79.272
_cell_angle_gamma    90.1224

_space_group_name_H-M_alt    "P 1"
_space_group_IT_number       1

loop_
  _space_group_symop_operation_xyz
  'x, y, z'

loop_
  _atom_site_type_symbol
  _atom_site_label
  _atom_site_symmetry_multiplicity
  _atom_site_fract_x
  _atom_site_fract_y
  _atom_site_fract_z
  _atom_site_occupancy
  Cd  Cd1       1.0  0.58475  0.92465  0.72247  1.0000
  Cd  Cd2       1.0  0.41525  0.07535  0.27754  1.0000
  H   H1        1.0  0.71869  0.12226  0.49379  1.0000
  H   H2        1.0  0.28131  0.87774  0.50621  1.0000
  H   H3        1.0  0.81755  0.98386  0.53657  1.0000
  H   H4        1.0  0.18246  0.01614  0.46342  1.0000
  H   H5        1.0  0.06381  0.83977  0.88425  1.0000
  H   H6        1.0  0.93619  0.16024  0.11575  1.0000
  H   H7        1.0  0.75243  0.13096  0.99058  1.0000
  H   H8        1.0  0.24757  0.86906  0.00942  1.0000
  H   H9        1.0  0.74006  0.55244  0.56589  1.0000
  H   H10       1.0  0.25994  0.44757  0.43410  1.0000
  H   H11       1.0  0.26859  0.65064  0.51132  1.0000
  H   H12       1.0  0.73141  0.34936  0.48867  1.0000
  H   H13       1.0  0.29371  0.68766  0.80143  1.0000
  H   H14       1.0  0.70630  0.31235  0.19857  1.0000
  H   H15       1.0  0.11853  0.51197  0.97514  1.0000
  H   H16       1.0  0.88148  0.48803  0.02485  1.0000
  H   H17       1.0  0.43424  0.59431  0.17605  1.0000
  H   H18       1.0  0.56576  0.40568  0.82395  1.0000
  H   H19       1.0  0.59986  0.76484  0.99383  1.0000
  H   H20       1.0  0.40013  0.23516  0.00617  1.0000
  H   H21       1.0  0.20358  0.41629  0.27162  1.0000
  H   H22       1.0  0.79642  0.58370  0.72838  1.0000
  H   H23       1.0  0.11553  0.34362  0.18629  1.0000
  H   H24       1.0  0.88446  0.65637  0.81371  1.0000
  H   H25       1.0  0.95380  0.57607  0.13852  1.0000
  H   H26       1.0  0.04620  0.42393  0.86148  1.0000
  H   H27       1.0  0.89766  0.43941  0.27580  1.0000
  H   H28       1.0  0.10235  0.56060  0.72420  1.0000
  H   H29       1.0  0.11736  0.71474  0.22563  1.0000
  H   H30       1.0  0.88264  0.28526  0.77438  1.0000
  H   H31       1.0  0.03394  0.58697  0.36059  1.0000
  H   H32       1.0  0.96607  0.41302  0.63941  1.0000
  H   H33       1.0  0.72481  0.63702  0.19822  1.0000
  H   H34       1.0  0.27519  0.36298  0.80178  1.0000
  H   H35       1.0  0.50864  0.80454  0.20962  1.0000
  H   H36       1.0  0.49137  0.19546  0.79038  1.0000
  H   H37       1.0  0.75143  0.01997  0.36452  1.0000
  H   H38       1.0  0.24858  0.98004  0.63548  1.0000
  H   H39       1.0  0.97935  0.86129  0.36195  1.0000
  H   H40       1.0  0.02065  0.13870  0.63805  1.0000
  C   C1        1.0  0.79225  0.97114  0.85270  1.0000
  C   C2        1.0  0.20774  0.02887  0.14730  1.0000
  C   C3        1.0  0.89828  0.98417  0.93027  1.0000
  C   C4        1.0  0.10172  0.01584  0.06973  1.0000
  C   C5        1.0  0.03686  0.90886  0.93597  1.0000
  C   C6        1.0  0.96314  0.09116  0.06403  1.0000
  C   C7        1.0  0.86157  0.07484  0.99528  1.0000
  C   C8        1.0  0.13843  0.92517  0.00472  1.0000
  C   C9        1.0  0.50965  0.73393  0.59373  1.0000
  C   C10       1.0  0.49035  0.26606  0.40628  1.0000
  C   C11       1.0  0.50523  0.61424  0.54406  1.0000
  C   C12       1.0  0.49477  0.38575  0.45594  1.0000
  C   C13       1.0  0.63489  0.52826  0.53731  1.0000
  C   C14       1.0  0.36511  0.47174  0.46269  1.0000
  C   C15       1.0  0.37012  0.58471  0.50611  1.0000
  C   C16       1.0  0.62988  0.41528  0.49388  1.0000
  C   C17       1.0  0.32075  0.66374  0.88632  1.0000
  C   C18       1.0  0.67926  0.33626  0.11368  1.0000
  C   C19       1.0  0.22341  0.56701  0.98359  1.0000
  C   C20       1.0  0.77659  0.43299  0.01640  1.0000
  C   C21       1.0  0.25827  0.54168  0.09195  1.0000
  C   C22       1.0  0.74173  0.45831  0.90805  1.0000
  C   C23       1.0  0.39871  0.61206  0.09466  1.0000
  C   C24       1.0  0.60128  0.38793  0.90534  1.0000
  C   C25       1.0  0.49144  0.70710  0.99335  1.0000
  C   C26       1.0  0.50855  0.29290  0.00665  1.0000
  C   C27       1.0  0.14526  0.44718  0.19764  1.0000
  C   C28       1.0  0.85472  0.55281  0.80236  1.0000
  C   C29       1.0  0.99233  0.52343  0.22026  1.0000
  C   C30       1.0  0.00767  0.47657  0.77974  1.0000
  C   C31       1.0  0.01110  0.63988  0.27342  1.0000
  C   C32       1.0  0.98890  0.36011  0.72658  1.0000
  C   C33       1.0  0.87241  0.73319  0.27999  1.0000
  C   C34       1.0  0.12760  0.26681  0.72002  1.0000
  C   C35       1.0  0.73692  0.71935  0.23710  1.0000
  C   C36       1.0  0.26308  0.28065  0.76291  1.0000
  C   C37       1.0  0.61469  0.81146  0.24340  1.0000
  C   C38       1.0  0.38532  0.18854  0.75660  1.0000
  C   C39       1.0  0.75036  0.93124  0.33084  1.0000
  C   C40       1.0  0.24964  0.06876  0.66916  1.0000
  C   C41       1.0  0.87628  0.84252  0.32849  1.0000
  C   C42       1.0  0.12372  0.15748  0.67152  1.0000
  N   N1        1.0  0.45235  0.73531  0.89066  1.0000
  N   N2        1.0  0.54765  0.26469  0.10935  1.0000
  N   N3        1.0  0.62038  0.91670  0.28942  1.0000
  N   N4        1.0  0.37963  0.08330  0.71058  1.0000
  O   O1        1.0  0.81866  0.87518  0.80471  1.0000
  O   O2        1.0  0.18132  0.12482  0.19530  1.0000
  O   O3        1.0  0.67858  0.05544  0.83798  1.0000
  O   O4        1.0  0.32140  0.94456  0.16203  1.0000
  O   O5        1.0  0.63473  0.75483  0.62827  1.0000
  O   O6        1.0  0.36526  0.24517  0.37173  1.0000
  O   O7        1.0  0.38762  0.80658  0.60286  1.0000
  O   O8        1.0  0.61238  0.19342  0.39714  1.0000
  O   O9        1.0  0.77939  0.06896  0.55504  1.0000
  O   O10       1.0  0.22061  0.93103  0.44496  1.0000
