data_image0
_chemical_formula_structural       Ca2H36C20N4Cl4O8
_chemical_formula_sum              "Ca2 H36 C20 N4 Cl4 O8"
_cell_length_a       7.55868
_cell_length_b       9.22568
_cell_length_c       10.6212
_cell_angle_alpha    90.0003
_cell_angle_beta     106.965
_cell_angle_gamma    89.9997

_space_group_name_H-M_alt    "P 1"
_space_group_IT_number       1

loop_
  _space_group_symop_operation_xyz
  'x, y, z'

loop_
  _atom_site_type_symbol
  _atom_site_label
  _atom_site_symmetry_multiplicity
  _atom_site_fract_x
  _atom_site_fract_y
  _atom_site_fract_z
  _atom_site_occupancy
  Ca  Ca1       1.0  0.50000  0.50000  1.00000  1.0000
  Ca  Ca2       1.0  1.00000  0.00000  1.00000  1.0000
  H   H1        1.0  0.90095  0.62953  0.16624  1.0000
  H   H2        1.0  0.59905  0.12953  0.83376  1.0000
  H   H3        1.0  0.09905  0.37047  0.83376  1.0000
  H   H4        1.0  0.40095  0.87047  0.16625  1.0000
  H   H5        1.0  0.19225  0.79159  0.31610  1.0000
  H   H6        1.0  0.30775  0.29159  0.68390  1.0000
  H   H7        1.0  0.80775  0.20840  0.68390  1.0000
  H   H8        1.0  0.69225  0.70841  0.31610  1.0000
  H   H9        1.0  0.04797  0.69465  0.39191  1.0000
  H   H10       1.0  0.45203  0.19465  0.60809  1.0000
  H   H11       1.0  0.95203  0.30535  0.60809  1.0000
  H   H12       1.0  0.54797  0.80535  0.39191  1.0000
  H   H13       1.0  0.41322  0.57938  0.35705  1.0000
  H   H14       1.0  0.08678  0.07938  0.64295  1.0000
  H   H15       1.0  0.58678  0.42062  0.64295  1.0000
  H   H16       1.0  0.91322  0.92062  0.35705  1.0000
  H   H17       1.0  0.35388  0.59650  0.50791  1.0000
  H   H18       1.0  0.14612  0.09650  0.49209  1.0000
  H   H19       1.0  0.64612  0.40350  0.49209  1.0000
  H   H20       1.0  0.85388  0.90350  0.50791  1.0000
  H   H21       1.0  0.28970  0.33694  0.37721  1.0000
  H   H22       1.0  0.21030  0.83694  0.62279  1.0000
  H   H23       1.0  0.71030  0.66305  0.62279  1.0000
  H   H24       1.0  0.78969  0.16306  0.37721  1.0000
  H   H25       1.0  0.11444  0.41235  0.43969  1.0000
  H   H26       1.0  0.38556  0.91235  0.56031  1.0000
  H   H27       1.0  0.88556  0.58765  0.56031  1.0000
  H   H28       1.0  0.61444  0.08765  0.43969  1.0000
  H   H29       1.0  0.12970  0.39824  0.16945  1.0000
  H   H30       1.0  0.37030  0.89824  0.83055  1.0000
  H   H31       1.0  0.87030  0.60176  0.83055  1.0000
  H   H32       1.0  0.62970  0.10176  0.16945  1.0000
  H   H33       1.0  0.94210  0.40189  0.22928  1.0000
  H   H34       1.0  0.55790  0.90190  0.77072  1.0000
  H   H35       1.0  0.05790  0.59811  0.77072  1.0000
  H   H36       1.0  0.44210  0.09811  0.22928  1.0000
  C   C1        1.0  0.13852  0.64102  0.09482  1.0000
  C   C2        1.0  0.36149  0.14103  0.90519  1.0000
  C   C3        1.0  0.86148  0.35898  0.90518  1.0000
  C   C4        1.0  0.63851  0.85897  0.09481  1.0000
  C   C5        1.0  0.04910  0.60561  0.20340  1.0000
  C   C6        1.0  0.45090  0.10561  0.79660  1.0000
  C   C7        1.0  0.95090  0.39439  0.79660  1.0000
  C   C8        1.0  0.54910  0.89439  0.20340  1.0000
  C   C9        1.0  0.14556  0.68273  0.33344  1.0000
  C   C10       1.0  0.35444  0.18273  0.66656  1.0000
  C   C11       1.0  0.85444  0.31727  0.66656  1.0000
  C   C12       1.0  0.64556  0.81727  0.33344  1.0000
  C   C13       1.0  0.29922  0.57685  0.40184  1.0000
  C   C14       1.0  0.20078  0.07685  0.59816  1.0000
  C   C15       1.0  0.70078  0.42315  0.59816  1.0000
  C   C16       1.0  0.79922  0.92315  0.40184  1.0000
  C   C17       1.0  0.20124  0.43133  0.37453  1.0000
  C   C18       1.0  0.29876  0.93133  0.62547  1.0000
  C   C19       1.0  0.79876  0.56867  0.62547  1.0000
  C   C20       1.0  0.70124  0.06867  0.37453  1.0000
  N   N1        1.0  0.07262  0.44639  0.23665  1.0000
  N   N2        1.0  0.42738  0.94639  0.76335  1.0000
  N   N3        1.0  0.92738  0.55361  0.76335  1.0000
  N   N4        1.0  0.57261  0.05361  0.23665  1.0000
  Cl  Cl1       1.0  0.67694  0.41109  0.25331  1.0000
  Cl  Cl2       1.0  0.82306  0.91108  0.74669  1.0000
  Cl  Cl3       1.0  0.32306  0.58891  0.74669  1.0000
  Cl  Cl4       1.0  0.17694  0.08892  0.25331  1.0000
  O   O1        1.0  0.22910  0.54045  0.06015  1.0000
  O   O2        1.0  0.27090  0.04047  0.93986  1.0000
  O   O3        1.0  0.77090  0.45955  0.93985  1.0000
  O   O4        1.0  0.72909  0.95953  0.06014  1.0000
  O   O5        1.0  0.11587  0.76808  0.04941  1.0000
  O   O6        1.0  0.38414  0.26809  0.95059  1.0000
  O   O7        1.0  0.88413  0.23192  0.95059  1.0000
  O   O8        1.0  0.61586  0.73191  0.04941  1.0000
