data_image0
_chemical_formula_structural       Ca4H44C20N4Cl8O12
_chemical_formula_sum              "Ca4 H44 C20 N4 Cl8 O12"
_cell_length_a       7.0458
_cell_length_b       11.5353
_cell_length_c       12.1113
_cell_angle_alpha    90
_cell_angle_beta     90.0002
_cell_angle_gamma    90.0001

_space_group_name_H-M_alt    "P 1"
_space_group_IT_number       1

loop_
  _space_group_symop_operation_xyz
  'x, y, z'

loop_
  _atom_site_type_symbol
  _atom_site_label
  _atom_site_symmetry_multiplicity
  _atom_site_fract_x
  _atom_site_fract_y
  _atom_site_fract_z
  _atom_site_occupancy
  Ca  Ca1       1.0  0.44494  0.78062  0.42154  1.0000
  Ca  Ca2       1.0  0.05506  0.21938  0.92154  1.0000
  Ca  Ca3       1.0  0.55507  0.28062  0.07846  1.0000
  Ca  Ca4       1.0  0.94495  0.71938  0.57846  1.0000
  H   H1        1.0  0.44969  0.52176  0.34705  1.0000
  H   H2        1.0  0.05030  0.47823  0.84705  1.0000
  H   H3        1.0  0.55031  0.02176  0.15295  1.0000
  H   H4        1.0  0.94969  0.97824  0.65295  1.0000
  H   H5        1.0  0.26421  0.55626  0.41334  1.0000
  H   H6        1.0  0.23578  0.44374  0.91334  1.0000
  H   H7        1.0  0.73578  0.05626  0.08666  1.0000
  H   H8        1.0  0.76421  0.94374  0.58666  1.0000
  H   H9        1.0  0.27555  0.68822  0.79999  1.0000
  H   H10       1.0  0.22446  0.31179  0.29999  1.0000
  H   H11       1.0  0.72445  0.18821  0.70001  1.0000
  H   H12       1.0  0.77555  0.81178  0.20001  1.0000
  H   H13       1.0  0.29074  0.92242  0.73726  1.0000
  H   H14       1.0  0.20927  0.07758  0.23726  1.0000
  H   H15       1.0  0.70926  0.42242  0.76274  1.0000
  H   H16       1.0  0.79074  0.57758  0.26274  1.0000
  H   H17       1.0  0.22726  0.87428  0.87097  1.0000
  H   H18       1.0  0.27275  0.12572  0.37097  1.0000
  H   H19       1.0  0.77273  0.37428  0.62903  1.0000
  H   H20       1.0  0.72726  0.62572  0.12903  1.0000
  H   H21       1.0  0.49979  0.99578  0.91358  1.0000
  H   H22       1.0  0.00021  0.00422  0.41358  1.0000
  H   H23       1.0  0.50020  0.49578  0.58643  1.0000
  H   H24       1.0  0.99979  0.50422  0.08643  1.0000
  H   H25       1.0  0.62248  0.95137  0.79208  1.0000
  H   H26       1.0  0.87752  0.04863  0.29207  1.0000
  H   H27       1.0  0.37751  0.45137  0.70793  1.0000
  H   H28       1.0  0.12248  0.54863  0.20793  1.0000
  H   H29       1.0  0.76463  0.82445  0.92930  1.0000
  H   H30       1.0  0.73537  0.17556  0.42929  1.0000
  H   H31       1.0  0.23536  0.32445  0.57070  1.0000
  H   H32       1.0  0.26463  0.67555  0.07071  1.0000
  H   H33       1.0  0.54270  0.80667  0.99968  1.0000
  H   H34       1.0  0.95731  0.19333  0.49968  1.0000
  H   H35       1.0  0.45730  0.30668  0.50032  1.0000
  H   H36       1.0  0.04269  0.69333  0.00032  1.0000
  H   H37       1.0  0.67996  0.69798  0.79681  1.0000
  H   H38       1.0  0.82005  0.30203  0.29680  1.0000
  H   H39       1.0  0.32003  0.19798  0.70319  1.0000
  H   H40       1.0  0.17996  0.80202  0.20319  1.0000
  H   H41       1.0  0.54005  0.64283  0.89374  1.0000
  H   H42       1.0  0.95996  0.35717  0.39373  1.0000
  H   H43       1.0  0.45995  0.14283  0.60626  1.0000
  H   H44       1.0  0.04004  0.85717  0.10626  1.0000
  C   C1        1.0  0.42836  0.73329  0.65557  1.0000
  C   C2        1.0  0.07167  0.26670  0.15557  1.0000
  C   C3        1.0  0.57164  0.23329  0.84443  1.0000
  C   C4        1.0  0.92836  0.76670  0.34444  1.0000
  C   C5        1.0  0.39200  0.74725  0.77836  1.0000
  C   C6        1.0  0.10801  0.25275  0.27836  1.0000
  C   C7        1.0  0.60800  0.24725  0.72163  1.0000
  C   C8        1.0  0.89200  0.75275  0.22164  1.0000
  C   C9        1.0  0.34131  0.87366  0.80912  1.0000
  C   C10       1.0  0.15869  0.12634  0.30912  1.0000
  C   C11       1.0  0.65869  0.37366  0.69088  1.0000
  C   C12       1.0  0.84131  0.62634  0.19088  1.0000
  C   C13       1.0  0.52524  0.92279  0.85772  1.0000
  C   C14       1.0  0.97476  0.07721  0.35771  1.0000
  C   C15       1.0  0.47475  0.42279  0.64229  1.0000
  C   C16       1.0  0.02525  0.57721  0.14229  1.0000
  C   C17       1.0  0.61041  0.81996  0.91892  1.0000
  C   C18       1.0  0.88960  0.18005  0.41891  1.0000
  C   C19       1.0  0.38959  0.31996  0.58108  1.0000
  C   C20       1.0  0.11041  0.68004  0.08108  1.0000
  N   N1        1.0  0.56280  0.71793  0.84655  1.0000
  N   N2        1.0  0.93721  0.28208  0.34654  1.0000
  N   N3        1.0  0.43720  0.21793  0.65345  1.0000
  N   N4        1.0  0.06280  0.78207  0.15346  1.0000
  Cl  Cl1       1.0  0.45523  0.86572  0.21314  1.0000
  Cl  Cl2       1.0  0.04476  0.13428  0.71314  1.0000
  Cl  Cl3       1.0  0.54477  0.36572  0.28686  1.0000
  Cl  Cl4       1.0  0.95523  0.63428  0.78686  1.0000
  Cl  Cl5       1.0  0.50798  0.99695  0.51249  1.0000
  Cl  Cl6       1.0  0.99202  0.00305  0.01250  1.0000
  Cl  Cl7       1.0  0.49202  0.49695  0.98750  1.0000
  Cl  Cl8       1.0  0.00798  0.50305  0.48750  1.0000
  O   O1        1.0  0.38268  0.58833  0.38097  1.0000
  O   O2        1.0  0.11731  0.41167  0.88097  1.0000
  O   O3        1.0  0.61732  0.08833  0.11903  1.0000
  O   O4        1.0  0.88268  0.91167  0.61903  1.0000
  O   O5        1.0  0.59381  0.71838  0.61735  1.0000
  O   O6        1.0  0.90618  0.28162  0.11734  1.0000
  O   O7        1.0  0.40618  0.21838  0.88265  1.0000
  O   O8        1.0  0.09383  0.78162  0.38265  1.0000
  O   O9        1.0  0.28162  0.74148  0.59382  1.0000
  O   O10       1.0  0.21837  0.25852  0.09383  1.0000
  O   O11       1.0  0.71837  0.24148  0.90617  1.0000
  O   O12       1.0  0.78164  0.75851  0.40618  1.0000
