data_image0
_chemical_formula_structural       Dy4H24C24N8O32
_chemical_formula_sum              "Dy4 H24 C24 N8 O32"
_cell_length_a       7.75313
_cell_length_b       8.43976
_cell_length_c       17.277
_cell_angle_alpha    89.9996
_cell_angle_beta     90
_cell_angle_gamma    107.598

_space_group_name_H-M_alt    "P 1"
_space_group_IT_number       1

loop_
  _space_group_symop_operation_xyz
  'x, y, z'

loop_
  _atom_site_type_symbol
  _atom_site_label
  _atom_site_symmetry_multiplicity
  _atom_site_fract_x
  _atom_site_fract_y
  _atom_site_fract_z
  _atom_site_occupancy
  Dy  Dy1       1.0  0.25689  0.23626  0.47667  1.0000
  Dy  Dy2       1.0  0.24312  0.76375  0.97667  1.0000
  Dy  Dy3       1.0  0.74311  0.76375  0.52333  1.0000
  Dy  Dy4       1.0  0.75689  0.23626  0.02334  1.0000
  H   H1        1.0  0.36487  0.39823  0.22889  1.0000
  H   H2        1.0  0.13513  0.60178  0.72888  1.0000
  H   H3        1.0  0.63513  0.60177  0.77111  1.0000
  H   H4        1.0  0.86487  0.39823  0.27111  1.0000
  H   H5        1.0  0.65315  0.89132  0.28881  1.0000
  H   H6        1.0  0.84685  0.10868  0.78881  1.0000
  H   H7        1.0  0.34686  0.10868  0.71118  1.0000
  H   H8        1.0  0.15314  0.89133  0.21119  1.0000
  H   H9        1.0  0.02353  0.17502  0.34899  1.0000
  H   H10       1.0  0.47647  0.82496  0.84899  1.0000
  H   H11       1.0  0.97646  0.82497  0.65101  1.0000
  H   H12       1.0  0.52353  0.17502  0.15101  1.0000
  H   H13       1.0  0.88245  0.15548  0.41636  1.0000
  H   H14       1.0  0.61755  0.84451  0.91636  1.0000
  H   H15       1.0  0.11754  0.84451  0.58365  1.0000
  H   H16       1.0  0.38245  0.15549  0.08364  1.0000
  H   H17       1.0  0.29016  0.59547  0.51830  1.0000
  H   H18       1.0  0.20983  0.40452  0.01829  1.0000
  H   H19       1.0  0.70985  0.40452  0.48171  1.0000
  H   H20       1.0  0.79015  0.59548  0.98170  1.0000
  H   H21       1.0  0.12847  0.47017  0.56240  1.0000
  H   H22       1.0  0.37152  0.52983  0.06240  1.0000
  H   H23       1.0  0.87153  0.52984  0.43760  1.0000
  H   H24       1.0  0.62848  0.47017  0.93759  1.0000
  C   C1        1.0  0.48095  0.55819  0.36783  1.0000
  C   C2        1.0  0.01905  0.44180  0.86783  1.0000
  C   C3        1.0  0.51904  0.44180  0.63217  1.0000
  C   C4        1.0  0.98095  0.55820  0.13217  1.0000
  C   C5        1.0  0.50337  0.62242  0.28786  1.0000
  C   C6        1.0  0.99664  0.37759  0.78786  1.0000
  C   C7        1.0  0.49662  0.37758  0.71214  1.0000
  C   C8        1.0  0.00337  0.62243  0.21214  1.0000
  C   C9        1.0  0.58292  0.77982  0.25711  1.0000
  C   C10       1.0  0.91708  0.22018  0.75711  1.0000
  C   C11       1.0  0.41707  0.22018  0.74289  1.0000
  C   C12       1.0  0.08292  0.77983  0.24289  1.0000
  C   C13       1.0  0.54563  0.76187  0.17715  1.0000
  C   C14       1.0  0.95437  0.23813  0.67716  1.0000
  C   C15       1.0  0.45437  0.23812  0.82284  1.0000
  C   C16       1.0  0.04563  0.76188  0.32285  1.0000
  C   C17       1.0  0.58184  0.88914  0.11533  1.0000
  C   C18       1.0  0.91816  0.11086  0.61533  1.0000
  C   C19       1.0  0.41816  0.11085  0.88467  1.0000
  C   C20       1.0  0.08184  0.88916  0.38467  1.0000
  C   C21       1.0  0.42709  0.94110  0.52600  1.0000
  C   C22       1.0  0.07291  0.05891  0.02599  1.0000
  C   C23       1.0  0.57291  0.05891  0.47401  1.0000
  C   C24       1.0  0.92710  0.94109  0.97401  1.0000
  N   N1        1.0  0.42906  0.52244  0.22670  1.0000
  N   N2        1.0  0.07094  0.47756  0.72670  1.0000
  N   N3        1.0  0.57094  0.47756  0.77330  1.0000
  N   N4        1.0  0.92906  0.52245  0.27330  1.0000
  N   N5        1.0  0.45180  0.60300  0.15960  1.0000
  N   N6        1.0  0.04821  0.39700  0.65960  1.0000
  N   N7        1.0  0.54821  0.39699  0.84040  1.0000
  N   N8        1.0  0.95180  0.60301  0.34041  1.0000
  O   O1        1.0  0.38465  0.40746  0.37575  1.0000
  O   O2        1.0  0.11534  0.59255  0.87576  1.0000
  O   O3        1.0  0.61533  0.59255  0.62424  1.0000
  O   O4        1.0  0.88467  0.40746  0.12424  1.0000
  O   O5        1.0  0.55508  0.65635  0.42172  1.0000
  O   O6        1.0  0.94493  0.34365  0.92172  1.0000
  O   O7        1.0  0.44490  0.34364  0.57828  1.0000
  O   O8        1.0  0.05509  0.65637  0.07829  1.0000
  O   O9        1.0  0.70352  0.02741  0.12600  1.0000
  O   O10       1.0  0.79648  0.97258  0.62601  1.0000
  O   O11       1.0  0.29648  0.97258  0.87400  1.0000
  O   O12       1.0  0.20352  0.02742  0.37399  1.0000
  O   O13       1.0  0.48459  0.85400  0.05477  1.0000
  O   O14       1.0  0.01540  0.14598  0.55477  1.0000
  O   O15       1.0  0.51540  0.14599  0.94523  1.0000
  O   O16       1.0  0.98458  0.85403  0.44522  1.0000
  O   O17       1.0  0.29076  0.98862  0.54190  1.0000
  O   O18       1.0  0.20925  0.01138  0.04189  1.0000
  O   O19       1.0  0.70925  0.01137  0.45810  1.0000
  O   O20       1.0  0.79076  0.98861  0.95810  1.0000
  O   O21       1.0  0.45349  0.80783  0.54830  1.0000
  O   O22       1.0  0.04651  0.19216  0.04830  1.0000
  O   O23       1.0  0.54652  0.19216  0.45171  1.0000
  O   O24       1.0  0.95351  0.80783  0.95170  1.0000
  O   O25       1.0  0.99441  0.23473  0.39296  1.0000
  O   O26       1.0  0.50559  0.76526  0.89297  1.0000
  O   O27       1.0  0.00558  0.76526  0.60704  1.0000
  O   O28       1.0  0.49442  0.23474  0.10703  1.0000
  O   O29       1.0  0.19563  0.48826  0.51230  1.0000
  O   O30       1.0  0.30436  0.51173  0.01229  1.0000
  O   O31       1.0  0.80437  0.51175  0.48771  1.0000
  O   O32       1.0  0.69563  0.48826  0.98770  1.0000
