data_image0
_chemical_formula_structural       Cu3H20C20N10O16
_chemical_formula_sum              "Cu3 H20 C20 N10 O16"
_cell_length_a       7.5892
_cell_length_b       9.12601
_cell_length_c       10.3925
_cell_angle_alpha    103.73
_cell_angle_beta     98.7982
_cell_angle_gamma    97.1118

_space_group_name_H-M_alt    "P 1"
_space_group_IT_number       1

loop_
  _space_group_symop_operation_xyz
  'x, y, z'

loop_
  _atom_site_type_symbol
  _atom_site_label
  _atom_site_symmetry_multiplicity
  _atom_site_fract_x
  _atom_site_fract_y
  _atom_site_fract_z
  _atom_site_occupancy
  Cu  Cu1       1.0  0.50000  1.00000  0.50000  1.0000
  Cu  Cu2       1.0  0.59050  0.63643  0.42511  1.0000
  Cu  Cu3       1.0  0.40950  0.36358  0.57488  1.0000
  H   H1        1.0  0.79185  0.88113  0.53565  1.0000
  H   H2        1.0  0.20814  0.11887  0.46435  1.0000
  H   H3        1.0  0.21421  0.46945  0.21989  1.0000
  H   H4        1.0  0.78580  0.53055  0.78010  1.0000
  H   H5        1.0  0.06626  0.90991  0.32600  1.0000
  H   H6        1.0  0.93373  0.09008  0.67400  1.0000
  H   H7        1.0  0.83801  0.48495  0.40796  1.0000
  H   H8        1.0  0.16199  0.51505  0.59205  1.0000
  H   H9        1.0  0.93617  0.64179  0.52061  1.0000
  H   H10       1.0  0.06382  0.35821  0.47939  1.0000
  H   H11       1.0  0.89705  0.68083  0.09022  1.0000
  H   H12       1.0  0.10295  0.31916  0.90977  1.0000
  H   H13       1.0  0.82724  0.56743  0.18910  1.0000
  H   H14       1.0  0.17276  0.43257  0.81089  1.0000
  H   H15       1.0  0.21336  0.85883  0.03537  1.0000
  H   H16       1.0  0.78664  0.14117  0.96463  1.0000
  H   H17       1.0  0.47198  0.72124  0.08395  1.0000
  H   H18       1.0  0.52802  0.27875  0.91605  1.0000
  H   H19       1.0  0.75685  0.87204  0.23865  1.0000
  H   H20       1.0  0.24315  0.12796  0.76136  1.0000
  C   C1        1.0  0.22009  0.58941  0.26861  1.0000
  C   C2        1.0  0.77991  0.41059  0.73138  1.0000
  C   C3        1.0  0.14509  0.81694  0.32113  1.0000
  C   C4        1.0  0.85491  0.18306  0.67887  1.0000
  C   C5        1.0  0.55841  0.34237  0.25012  1.0000
  C   C6        1.0  0.44159  0.65763  0.74988  1.0000
  C   C7        1.0  0.53315  0.16881  0.21761  1.0000
  C   C8        1.0  0.46686  0.83119  0.78239  1.0000
  C   C9        1.0  0.36803  0.07865  0.14546  1.0000
  C   C10       1.0  0.63197  0.92135  0.85454  1.0000
  C   C11       1.0  0.34240  0.91957  0.09767  1.0000
  C   C12       1.0  0.65760  0.08043  0.90233  1.0000
  C   C13       1.0  0.48598  0.84428  0.12590  1.0000
  C   C14       1.0  0.51402  0.15572  0.87410  1.0000
  C   C15       1.0  0.64631  0.92896  0.20760  1.0000
  C   C16       1.0  0.35369  0.07104  0.79240  1.0000
  C   C17       1.0  0.67313  0.08908  0.25346  1.0000
  C   C18       1.0  0.32687  0.91093  0.74654  1.0000
  C   C19       1.0  0.85419  0.16612  0.34129  1.0000
  C   C20       1.0  0.14581  0.83388  0.65872  1.0000
  N   N1        1.0  0.30879  0.82363  0.39104  1.0000
  N   N2        1.0  0.69121  0.17636  0.60896  1.0000
  N   N3        1.0  0.35372  0.68121  0.35898  1.0000
  N   N4        1.0  0.64628  0.31879  0.64102  1.0000
  N   N5        1.0  0.08721  0.67101  0.24220  1.0000
  N   N6        1.0  0.91280  0.32899  0.75779  1.0000
  N   N7        1.0  0.93102  0.60773  0.14690  1.0000
  N   N8        1.0  0.06898  0.39227  0.85310  1.0000
  N   N9        1.0  0.21043  0.14991  0.11579  1.0000
  N   N10       1.0  0.78958  0.85010  0.88421  1.0000
  O   O1        1.0  0.65974  0.85199  0.50349  1.0000
  O   O2        1.0  0.34026  0.14800  0.49650  1.0000
  O   O3        1.0  0.62582  0.40577  0.17146  1.0000
  O   O4        1.0  0.37419  0.59424  0.82854  1.0000
  O   O5        1.0  0.83632  0.59715  0.43601  1.0000
  O   O6        1.0  0.16367  0.40285  0.56399  1.0000
  O   O7        1.0  0.50504  0.41039  0.35839  1.0000
  O   O8        1.0  0.49496  0.58962  0.64161  1.0000
  O   O9        1.0  0.23306  0.27297  0.08248  1.0000
  O   O10       1.0  0.76695  0.72703  0.91751  1.0000
  O   O11       1.0  0.06165  0.08379  0.12356  1.0000
  O   O12       1.0  0.93835  0.91622  0.87645  1.0000
  O   O13       1.0  0.89249  0.31259  0.37162  1.0000
  O   O14       1.0  0.10751  0.68741  0.62838  1.0000
  O   O15       1.0  0.95888  0.08287  0.38180  1.0000
  O   O16       1.0  0.04112  0.91713  0.61820  1.0000
