data_image0
_chemical_formula_structural       Pr2H40C42N4O12
_chemical_formula_sum              "Pr2 H40 C42 N4 O12"
_cell_length_a       10.2608
_cell_length_b       11.1237
_cell_length_c       11.1853
_cell_angle_alpha    98.4701
_cell_angle_beta     114.67
_cell_angle_gamma    107.56

_space_group_name_H-M_alt    "P 1"
_space_group_IT_number       1

loop_
  _space_group_symop_operation_xyz
  'x, y, z'

loop_
  _atom_site_type_symbol
  _atom_site_label
  _atom_site_symmetry_multiplicity
  _atom_site_fract_x
  _atom_site_fract_y
  _atom_site_fract_z
  _atom_site_occupancy
  Pr  Pr1       1.0  0.99329  0.64755  0.12405  1.0000
  Pr  Pr2       1.0  0.00671  0.35245  0.87596  1.0000
  H   H1        1.0  0.75724  0.13099  0.10817  1.0000
  H   H2        1.0  0.24276  0.86901  0.89183  1.0000
  H   H3        1.0  0.58494  0.13119  0.98227  1.0000
  H   H4        1.0  0.41506  0.86881  0.01773  1.0000
  H   H5        1.0  0.61332  0.15126  0.22655  1.0000
  H   H6        1.0  0.38667  0.84873  0.77344  1.0000
  H   H7        1.0  0.76326  0.31061  0.28563  1.0000
  H   H8        1.0  0.23674  0.68938  0.71436  1.0000
  H   H9        1.0  0.53132  0.34600  0.24396  1.0000
  H   H10       1.0  0.46867  0.65399  0.75603  1.0000
  H   H11       1.0  0.56168  0.37456  0.10481  1.0000
  H   H12       1.0  0.43832  0.62544  0.89520  1.0000
  H   H13       1.0  0.32307  0.12009  0.09455  1.0000
  H   H14       1.0  0.67692  0.87990  0.90543  1.0000
  H   H15       1.0  0.36757  0.13567  0.96014  1.0000
  H   H16       1.0  0.63243  0.86434  0.03985  1.0000
  H   H17       1.0  0.38949  0.45258  0.24482  1.0000
  H   H18       1.0  0.61051  0.54742  0.75517  1.0000
  H   H19       1.0  0.26610  0.36505  0.30094  1.0000
  H   H20       1.0  0.73390  0.63496  0.69906  1.0000
  H   H21       1.0  0.55669  0.62766  0.46681  1.0000
  H   H22       1.0  0.44331  0.37234  0.53318  1.0000
  H   H23       1.0  0.41300  0.58689  0.51691  1.0000
  H   H24       1.0  0.58702  0.41312  0.48308  1.0000
  H   H25       1.0  0.30208  0.94079  0.19855  1.0000
  H   H26       1.0  0.69792  0.05922  0.80145  1.0000
  H   H27       1.0  0.51091  0.15877  0.38197  1.0000
  H   H28       1.0  0.48908  0.84125  0.61803  1.0000
  H   H29       1.0  0.51136  0.22145  0.60500  1.0000
  H   H30       1.0  0.48862  0.77856  0.39500  1.0000
  H   H31       1.0  0.94600  0.79858  0.68866  1.0000
  H   H32       1.0  0.05401  0.20140  0.31134  1.0000
  H   H33       1.0  0.77525  0.57394  0.50578  1.0000
  H   H34       1.0  0.22476  0.42604  0.49422  1.0000
  H   H35       1.0  0.79759  0.53110  0.29014  1.0000
  H   H36       1.0  0.20242  0.46889  0.70986  1.0000
  H   H37       1.0  0.36655  0.17877  0.74024  1.0000
  H   H38       1.0  0.63344  0.82123  0.25977  1.0000
  H   H39       1.0  0.15544  0.02423  0.76726  1.0000
  H   H40       1.0  0.84455  0.97576  0.23274  1.0000
  C   C1        1.0  0.79012  0.30549  0.05014  1.0000
  C   C2        1.0  0.20988  0.69451  0.94987  1.0000
  C   C3        1.0  0.69198  0.19424  0.08121  1.0000
  C   C4        1.0  0.30802  0.80576  0.91879  1.0000
  C   C5        1.0  0.65402  0.23776  0.19418  1.0000
  C   C6        1.0  0.34598  0.76223  0.80582  1.0000
  C   C7        1.0  0.53096  0.29698  0.15074  1.0000
  C   C8        1.0  0.46904  0.70302  0.84926  1.0000
  C   C9        1.0  0.36552  0.19269  0.04831  1.0000
  C   C10       1.0  0.63448  0.80731  0.95168  1.0000
  C   C11       1.0  0.24300  0.24851  0.98676  1.0000
  C   C12       1.0  0.75700  0.75150  0.01324  1.0000
  C   C13       1.0  0.22555  0.52973  0.24842  1.0000
  C   C14       1.0  0.77446  0.47027  0.75158  1.0000
  C   C15       1.0  0.33825  0.46663  0.31190  1.0000
  C   C16       1.0  0.66175  0.53337  0.68810  1.0000
  C   C17       1.0  0.46370  0.54280  0.46251  1.0000
  C   C18       1.0  0.53631  0.45720  0.53749  1.0000
  C   C19       1.0  0.30538  0.97412  0.29705  1.0000
  C   C20       1.0  0.69462  0.02589  0.70296  1.0000
  C   C21       1.0  0.42056  0.09541  0.39915  1.0000
  C   C22       1.0  0.57943  0.90460  0.60085  1.0000
  C   C23       1.0  0.41946  0.13087  0.52218  1.0000
  C   C24       1.0  0.58053  0.86914  0.47782  1.0000
  C   C25       1.0  0.30039  0.04724  0.54119  1.0000
  C   C26       1.0  0.69960  0.95276  0.45882  1.0000
  C   C27       1.0  0.19180  0.92457  0.43394  1.0000
  C   C28       1.0  0.80820  0.07543  0.56607  1.0000
  C   C29       1.0  0.07428  0.83261  0.45334  1.0000
  C   C30       1.0  0.92572  0.16739  0.54666  1.0000
  C   C31       1.0  0.06548  0.86902  0.57628  1.0000
  C   C32       1.0  0.93452  0.13097  0.42372  1.0000
  C   C33       1.0  0.95393  0.77405  0.59441  1.0000
  C   C34       1.0  0.04608  0.22594  0.40559  1.0000
  C   C35       1.0  0.85896  0.65141  0.49379  1.0000
  C   C36       1.0  0.14105  0.34858  0.50621  1.0000
  C   C37       1.0  0.87204  0.62579  0.37333  1.0000
  C   C38       1.0  0.12797  0.37421  0.62667  1.0000
  C   C39       1.0  0.28547  0.08190  0.66196  1.0000
  C   C40       1.0  0.71452  0.91810  0.33804  1.0000
  C   C41       1.0  0.17016  0.99692  0.67740  1.0000
  C   C42       1.0  0.82983  0.00307  0.32260  1.0000
  N   N1        1.0  0.19609  0.88979  0.31443  1.0000
  N   N2        1.0  0.80390  0.11021  0.68558  1.0000
  N   N3        1.0  0.97615  0.71328  0.35343  1.0000
  N   N4        1.0  0.02386  0.28672  0.64657  1.0000
  O   O1        1.0  0.84154  0.42510  0.12312  1.0000
  O   O2        1.0  0.15845  0.57490  0.87688  1.0000
  O   O3        1.0  0.81512  0.26739  0.95140  1.0000
  O   O4        1.0  0.18488  0.73261  0.04860  1.0000
  O   O5        1.0  0.10415  0.18475  0.96515  1.0000
  O   O6        1.0  0.89584  0.81525  0.03484  1.0000
  O   O7        1.0  0.27954  0.35522  0.95567  1.0000
  O   O8        1.0  0.72047  0.64479  0.04434  1.0000
  O   O9        1.0  0.13272  0.48264  0.11701  1.0000
  O   O10       1.0  0.86728  0.51736  0.88299  1.0000
  O   O11       1.0  0.22156  0.62468  0.32284  1.0000
  O   O12       1.0  0.77845  0.37533  0.67716  1.0000
