data_image0
_chemical_formula_structural       Na6H24C12N14O18
_chemical_formula_sum              "Na6 H24 C12 N14 O18"
_cell_length_a       9.4018
_cell_length_b       9.40182
_cell_length_c       9.40181
_cell_angle_alpha    103.036
_cell_angle_beta     103.037
_cell_angle_gamma    103.036

_space_group_name_H-M_alt    "P 1"
_space_group_IT_number       1

loop_
  _space_group_symop_operation_xyz
  'x, y, z'

loop_
  _atom_site_type_symbol
  _atom_site_label
  _atom_site_symmetry_multiplicity
  _atom_site_fract_x
  _atom_site_fract_y
  _atom_site_fract_z
  _atom_site_occupancy
  Na  Na1       1.0  0.26643  0.61885  0.12778  1.0000
  Na  Na2       1.0  0.12778  0.26643  0.61885  1.0000
  Na  Na3       1.0  0.61885  0.12778  0.26643  1.0000
  Na  Na4       1.0  0.62778  0.11885  0.76643  1.0000
  Na  Na5       1.0  0.11885  0.76643  0.62778  1.0000
  Na  Na6       1.0  0.76643  0.62778  0.11885  1.0000
  H   H1        1.0  0.45830  0.41683  0.27915  1.0000
  H   H2        1.0  0.27915  0.45830  0.41684  1.0000
  H   H3        1.0  0.41683  0.27915  0.45830  1.0000
  H   H4        1.0  0.77915  0.91683  0.95830  1.0000
  H   H5        1.0  0.91684  0.95830  0.77915  1.0000
  H   H6        1.0  0.95829  0.77915  0.91683  1.0000
  H   H7        1.0  0.39206  0.32091  0.07859  1.0000
  H   H8        1.0  0.07859  0.39206  0.32090  1.0000
  H   H9        1.0  0.32090  0.07859  0.39206  1.0000
  H   H10       1.0  0.57859  0.82091  0.89206  1.0000
  H   H11       1.0  0.82090  0.89206  0.57859  1.0000
  H   H12       1.0  0.89206  0.57859  0.82090  1.0000
  H   H13       1.0  0.98992  0.26194  0.04957  1.0000
  H   H14       1.0  0.04956  0.98992  0.26193  1.0000
  H   H15       1.0  0.26193  0.04957  0.98992  1.0000
  H   H16       1.0  0.54957  0.76194  0.48992  1.0000
  H   H17       1.0  0.76193  0.48992  0.54957  1.0000
  H   H18       1.0  0.48992  0.54957  0.76193  1.0000
  H   H19       1.0  0.12451  0.23118  0.94841  1.0000
  H   H20       1.0  0.94841  0.12451  0.23117  1.0000
  H   H21       1.0  0.23118  0.94842  0.12450  1.0000
  H   H22       1.0  0.44841  0.73118  0.62450  1.0000
  H   H23       1.0  0.73118  0.62451  0.44841  1.0000
  H   H24       1.0  0.62450  0.44841  0.73117  1.0000
  C   C1        1.0  0.36720  0.32601  0.18818  1.0000
  C   C2        1.0  0.18818  0.36721  0.32601  1.0000
  C   C3        1.0  0.32600  0.18818  0.36720  1.0000
  C   C4        1.0  0.68818  0.82600  0.86720  1.0000
  C   C5        1.0  0.82600  0.86721  0.68818  1.0000
  C   C6        1.0  0.86720  0.68818  0.82600  1.0000
  C   C7        1.0  0.09965  0.23685  0.05785  1.0000
  C   C8        1.0  0.05785  0.09965  0.23685  1.0000
  C   C9        1.0  0.23685  0.05786  0.09964  1.0000
  C   C10       1.0  0.55785  0.73685  0.59965  1.0000
  C   C11       1.0  0.73685  0.59965  0.55785  1.0000
  C   C12       1.0  0.59964  0.55785  0.73684  1.0000
  N   N1        1.0  0.22099  0.36287  0.17885  1.0000
  N   N2        1.0  0.17884  0.22099  0.36287  1.0000
  N   N3        1.0  0.36287  0.17885  0.22099  1.0000
  N   N4        1.0  0.67885  0.86287  0.72099  1.0000
  N   N5        1.0  0.86287  0.72099  0.67884  1.0000
  N   N6        1.0  0.72099  0.67885  0.86286  1.0000
  N   N7        1.0  0.08839  0.08839  0.08839  1.0000
  N   N8        1.0  0.58839  0.58839  0.58839  1.0000
  N   N9        1.0  0.20652  0.57174  0.80290  1.0000
  N   N10       1.0  0.80290  0.20652  0.57174  1.0000
  N   N11       1.0  0.57174  0.80290  0.20652  1.0000
  N   N12       1.0  0.30290  0.07174  0.70652  1.0000
  N   N13       1.0  0.07174  0.70652  0.30291  1.0000
  N   N14       1.0  0.70653  0.30290  0.07174  1.0000
  O   O1        1.0  0.22248  0.70578  0.88090  1.0000
  O   O2        1.0  0.88090  0.22248  0.70578  1.0000
  O   O3        1.0  0.70578  0.88090  0.22248  1.0000
  O   O4        1.0  0.38090  0.20578  0.72248  1.0000
  O   O5        1.0  0.20578  0.72248  0.38090  1.0000
  O   O6        1.0  0.72248  0.38090  0.20578  1.0000
  O   O7        1.0  0.22458  0.46970  0.86752  1.0000
  O   O8        1.0  0.86752  0.22457  0.46970  1.0000
  O   O9        1.0  0.46970  0.86752  0.22458  1.0000
  O   O10       1.0  0.36752  0.96970  0.72457  1.0000
  O   O11       1.0  0.96970  0.72457  0.36752  1.0000
  O   O12       1.0  0.72457  0.36752  0.96970  1.0000
  O   O13       1.0  0.17184  0.53777  0.65759  1.0000
  O   O14       1.0  0.65759  0.17184  0.53777  1.0000
  O   O15       1.0  0.53777  0.65759  0.17184  1.0000
  O   O16       1.0  0.15759  0.03777  0.67184  1.0000
  O   O17       1.0  0.03777  0.67184  0.15759  1.0000
  O   O18       1.0  0.67184  0.15759  0.03777  1.0000
