data_image0
_chemical_formula_structural       CuH10C10Br2N6O2
_chemical_formula_sum              "Cu1 H10 C10 Br2 N6 O2"
_cell_length_a       3.81348
_cell_length_b       6.7804
_cell_length_c       13.4234
_cell_angle_alpha    103.001
_cell_angle_beta     87.9279
_cell_angle_gamma    94.9296

_space_group_name_H-M_alt    "P 1"
_space_group_IT_number       1

loop_
  _space_group_symop_operation_xyz
  'x, y, z'

loop_
  _atom_site_type_symbol
  _atom_site_label
  _atom_site_symmetry_multiplicity
  _atom_site_fract_x
  _atom_site_fract_y
  _atom_site_fract_z
  _atom_site_occupancy
  Cu  Cu1       1.0  0.49999  0.50000  0.50000  1.0000
  H   H1        1.0  0.32537  0.55319  0.29663  1.0000
  H   H2        1.0  0.67462  0.44681  0.70337  1.0000
  H   H3        1.0  0.63033  0.85368  0.21843  1.0000
  H   H4        1.0  0.36968  0.14631  0.78157  1.0000
  H   H5        1.0  0.63262  0.05941  0.39924  1.0000
  H   H6        1.0  0.36736  0.94059  0.60076  1.0000
  H   H7        1.0  0.10816  0.32861  0.95038  1.0000
  H   H8        1.0  0.89184  0.67139  0.04962  1.0000
  H   H9        1.0  0.33690  0.13278  0.98208  1.0000
  H   H10       1.0  0.66313  0.86722  0.01792  1.0000
  C   C1        1.0  0.39153  0.39627  0.27946  1.0000
  C   C2        1.0  0.60846  0.60372  0.72054  1.0000
  C   C3        1.0  0.36706  0.27678  0.18021  1.0000
  C   C4        1.0  0.63293  0.72322  0.81979  1.0000
  C   C5        1.0  0.55699  0.00998  0.23512  1.0000
  C   C6        1.0  0.44302  0.99003  0.76489  1.0000
  C   C7        1.0  0.56265  0.12379  0.33592  1.0000
  C   C8        1.0  0.43734  0.87621  0.66409  1.0000
  C   C9        1.0  0.21850  0.37012  0.10091  1.0000
  C   C10       1.0  0.78151  0.62988  0.89910  1.0000
  Br  Br1       1.0  0.93126  0.73665  0.44198  1.0000
  Br  Br2       1.0  0.06874  0.26335  0.55802  1.0000
  N   N1        1.0  0.48707  0.31907  0.35698  1.0000
  N   N2        1.0  0.51292  0.68092  0.64303  1.0000
  N   N3        1.0  0.45956  0.08478  0.15680  1.0000
  N   N4        1.0  0.54043  0.91522  0.84320  1.0000
  N   N5        1.0  0.21820  0.26527  0.00422  1.0000
  N   N6        1.0  0.78181  0.73473  0.99578  1.0000
  O   O1        1.0  0.09106  0.53870  0.13054  1.0000
  O   O2        1.0  0.90894  0.46130  0.86946  1.0000
