data_image0
_chemical_formula_structural       H20Pd4C20O12
_chemical_formula_sum              "H20 Pd4 C20 O12"
_cell_length_a       6.22245
_cell_length_b       11.2639
_cell_length_c       11.4072
_cell_angle_alpha    103.421
_cell_angle_beta     99.6214
_cell_angle_gamma    97.074

_space_group_name_H-M_alt    "P 1"
_space_group_IT_number       1

loop_
  _space_group_symop_operation_xyz
  'x, y, z'

loop_
  _atom_site_type_symbol
  _atom_site_label
  _atom_site_symmetry_multiplicity
  _atom_site_fract_x
  _atom_site_fract_y
  _atom_site_fract_z
  _atom_site_occupancy
  H   H1        1.0  0.47530  0.02471  0.62093  1.0000
  H   H2        1.0  0.52470  0.97529  0.37907  1.0000
  H   H3        1.0  0.01796  0.89507  0.63488  1.0000
  H   H4        1.0  0.98204  0.10493  0.36512  1.0000
  H   H5        1.0  0.04444  0.10319  0.78504  1.0000
  H   H6        1.0  0.95557  0.89681  0.21496  1.0000
  H   H7        1.0  0.96167  0.11802  0.63508  1.0000
  H   H8        1.0  0.03833  0.88198  0.36492  1.0000
  H   H9        1.0  0.24313  0.17204  0.71343  1.0000
  H   H10       1.0  0.75688  0.82795  0.28657  1.0000
  H   H11       1.0  0.23974  0.69651  0.07804  1.0000
  H   H12       1.0  0.76026  0.30349  0.92197  1.0000
  H   H13       1.0  0.81487  0.58889  0.14868  1.0000
  H   H14       1.0  0.18512  0.41111  0.85132  1.0000
  H   H15       1.0  0.66798  0.57573  0.92539  1.0000
  H   H16       1.0  0.33201  0.42427  0.07461  1.0000
  H   H17       1.0  0.89116  0.69139  0.92489  1.0000
  H   H18       1.0  0.10884  0.30861  0.07511  1.0000
  H   H19       1.0  0.68166  0.72838  0.01036  1.0000
  H   H20       1.0  0.31833  0.27162  0.98964  1.0000
  Pd  Pd1       1.0  0.63749  0.64286  0.43889  1.0000
  Pd  Pd2       1.0  0.36251  0.35714  0.56111  1.0000
  Pd  Pd3       1.0  0.22169  0.54213  0.47833  1.0000
  Pd  Pd4       1.0  0.77832  0.45787  0.52167  1.0000
  C   C1        1.0  0.69039  0.47856  0.35231  1.0000
  C   C2        1.0  0.30962  0.52145  0.64770  1.0000
  C   C3        1.0  0.79457  0.63594  0.60282  1.0000
  C   C4        1.0  0.20545  0.36406  0.39718  1.0000
  C   C5        1.0  0.37780  0.82370  0.56148  1.0000
  C   C6        1.0  0.62220  0.17630  0.43852  1.0000
  C   C7        1.0  0.34034  0.95015  0.61362  1.0000
  C   C8        1.0  0.65966  0.04985  0.38638  1.0000
  C   C9        1.0  0.14913  0.97342  0.64663  1.0000
  C   C10       1.0  0.85087  0.02658  0.35337  1.0000
  C   C11       1.0  0.10025  0.09865  0.69771  1.0000
  C   C12       1.0  0.89976  0.90135  0.30229  1.0000
  C   C13       1.0  0.24414  0.62811  0.24256  1.0000
  C   C14       1.0  0.75585  0.37190  0.75744  1.0000
  C   C15       1.0  0.13237  0.65478  0.12933  1.0000
  C   C16       1.0  0.86762  0.34522  0.87067  1.0000
  C   C17       1.0  0.91123  0.63080  0.09238  1.0000
  C   C18       1.0  0.08876  0.36920  0.90762  1.0000
  C   C19       1.0  0.78502  0.65826  0.98223  1.0000
  C   C20       1.0  0.21498  0.34174  0.01777  1.0000
  O   O1        1.0  0.66210  0.41562  0.25167  1.0000
  O   O2        1.0  0.33789  0.58438  0.74832  1.0000
  O   O3        1.0  0.85035  0.70132  0.70256  1.0000
  O   O4        1.0  0.14966  0.29868  0.29743  1.0000
  O   O5        1.0  0.56169  0.81513  0.52536  1.0000
  O   O6        1.0  0.43831  0.18487  0.47465  1.0000
  O   O7        1.0  0.22652  0.73283  0.55485  1.0000
  O   O8        1.0  0.77348  0.26717  0.44515  1.0000
  O   O9        1.0  0.45600  0.65966  0.27087  1.0000
  O   O10       1.0  0.54399  0.34035  0.72913  1.0000
  O   O11       1.0  0.12439  0.57643  0.30377  1.0000
  O   O12       1.0  0.87561  0.42357  0.69623  1.0000
