data_image0
_chemical_formula_structural       Cd3H24C36N12
_chemical_formula_sum              "Cd3 H24 C36 N12"
_cell_length_a       8.41435
_cell_length_b       8.98054
_cell_length_c       12.8492
_cell_angle_alpha    92.3987
_cell_angle_beta     98.2065
_cell_angle_gamma    105.336

_space_group_name_H-M_alt    "P 1"
_space_group_IT_number       1

loop_
  _space_group_symop_operation_xyz
  'x, y, z'

loop_
  _atom_site_type_symbol
  _atom_site_label
  _atom_site_symmetry_multiplicity
  _atom_site_fract_x
  _atom_site_fract_y
  _atom_site_fract_z
  _atom_site_occupancy
  Cd  Cd1       1.0  0.99914  0.99588  0.99931  1.0000
  Cd  Cd2       1.0  0.78878  0.17126  0.59620  1.0000
  Cd  Cd3       1.0  0.38104  0.59222  0.07980  1.0000
  H   H1        1.0  0.18794  0.85300  0.19854  1.0000
  H   H2        1.0  0.27348  0.89669  0.39257  1.0000
  H   H3        1.0  0.22515  0.13289  0.48683  1.0000
  H   H4        1.0  0.09327  0.30460  0.38255  1.0000
  H   H5        1.0  0.04876  0.46800  0.27794  1.0000
  H   H6        1.0  0.90095  0.61667  0.15619  1.0000
  H   H7        1.0  0.75308  0.49233  0.97900  1.0000
  H   H8        1.0  0.76929  0.22404  0.92638  1.0000
  H   H9        1.0  0.89723  0.85289  0.62274  1.0000
  H   H10       1.0  0.93852  0.62669  0.51626  1.0000
  H   H11       1.0  0.85211  0.60689  0.32004  1.0000
  H   H12       1.0  0.73757  0.80959  0.23837  1.0000
  H   H13       1.0  0.61887  0.96202  0.18142  1.0000
  H   H14       1.0  0.49290  0.16893  0.11843  1.0000
  H   H15       1.0  0.48172  0.38118  0.25005  1.0000
  H   H16       1.0  0.59659  0.37281  0.43884  1.0000
  H   H17       1.0  0.49136  0.83952  0.54832  1.0000
  H   H18       1.0  0.25332  0.68898  0.62873  1.0000
  H   H19       1.0  0.14120  0.83203  0.76399  1.0000
  H   H20       1.0  0.26655  0.11414  0.80568  1.0000
  H   H21       1.0  0.32363  0.35482  0.78167  1.0000
  H   H22       1.0  0.47801  0.63347  0.82179  1.0000
  H   H23       1.0  0.77055  0.72538  0.78290  1.0000
  H   H24       1.0  0.89215  0.53081  0.69851  1.0000
  C   C1        1.0  0.16707  0.95136  0.24200  1.0000
  C   C2        1.0  0.21603  0.97737  0.35104  1.0000
  C   C3        1.0  0.18949  0.10676  0.40177  1.0000
  C   C4        1.0  0.11473  0.20404  0.34264  1.0000
  C   C5        1.0  0.06688  0.16911  0.23349  1.0000
  C   C6        1.0  0.98180  0.26532  0.16647  1.0000
  C   C7        1.0  0.98084  0.41507  0.20111  1.0000
  C   C8        1.0  0.89954  0.49819  0.13314  1.0000
  C   C9        1.0  0.81782  0.43024  0.03360  1.0000
  C   C10       1.0  0.82602  0.28177  0.00452  1.0000
  C   C11       1.0  0.86244  0.83684  0.53714  1.0000
  C   C12       1.0  0.88468  0.71234  0.47817  1.0000
  C   C13       1.0  0.83790  0.70271  0.36917  1.0000
  C   C14       1.0  0.77227  0.81574  0.32347  1.0000
  C   C15       1.0  0.75132  0.93635  0.38806  1.0000
  C   C16       1.0  0.67601  0.05774  0.34475  1.0000
  C   C17       1.0  0.61370  0.05437  0.23721  1.0000
  C   C18       1.0  0.54362  0.17073  0.20151  1.0000
  C   C19       1.0  0.53714  0.28860  0.27357  1.0000
  C   C20       1.0  0.60075  0.28401  0.37922  1.0000
  C   C21       1.0  0.43803  0.89699  0.60552  1.0000
  C   C22       1.0  0.30407  0.81325  0.65060  1.0000
  C   C23       1.0  0.24204  0.89271  0.72372  1.0000
  C   C24       1.0  0.31208  0.05159  0.74734  1.0000
  C   C25       1.0  0.44561  0.12724  0.69792  1.0000
  C   C26       1.0  0.52838  0.29570  0.72090  1.0000
  C   C27       1.0  0.45064  0.39682  0.76588  1.0000
  C   C28       1.0  0.53672  0.55277  0.78761  1.0000
  C   C29       1.0  0.69864  0.60472  0.76509  1.0000
  C   C30       1.0  0.76634  0.49774  0.71872  1.0000
  C   C31       1.0  0.37422  0.63003  0.24995  1.0000
  C   C32       1.0  0.02694  0.34820  0.58802  1.0000
  C   C33       1.0  0.21280  0.72345  0.00245  1.0000
  C   C34       1.0  0.30810  0.34792  0.01685  1.0000
  C   C35       1.0  0.90608  0.02517  0.83153  1.0000
  C   C36       1.0  0.62872  0.72808  0.04552  1.0000
  N   N1        1.0  0.09423  0.04377  0.18486  1.0000
  N   N2        1.0  0.90676  0.20287  0.06881  1.0000
  N   N3        1.0  0.79713  0.94482  0.49360  1.0000
  N   N4        1.0  0.66831  0.17222  0.41378  1.0000
  N   N5        1.0  0.50795  0.04922  0.62903  1.0000
  N   N6        1.0  0.68315  0.34789  0.69644  1.0000
  N   N7        1.0  0.36407  0.65990  0.33810  1.0000
  N   N8        1.0  0.14978  0.44279  0.57967  1.0000
  N   N9        1.0  0.13439  0.81037  0.97978  1.0000
  N   N10       1.0  0.25910  0.21556  0.98914  1.0000
  N   N11       1.0  0.86522  0.04610  0.74374  1.0000
  N   N12       1.0  0.75710  0.80757  0.03139  1.0000
