data_image0
_chemical_formula_structural       Co4H28C40S4N8
_chemical_formula_sum              "Co4 H28 C40 S4 N8"
_cell_length_a       5.60394
_cell_length_b       12.9315
_cell_length_c       13.5762
_cell_angle_alpha    70.7847
_cell_angle_beta     78.1288
_cell_angle_gamma    77.5742

_space_group_name_H-M_alt    "P 1"
_space_group_IT_number       1

loop_
  _space_group_symop_operation_xyz
  'x, y, z'

loop_
  _atom_site_type_symbol
  _atom_site_label
  _atom_site_symmetry_multiplicity
  _atom_site_fract_x
  _atom_site_fract_y
  _atom_site_fract_z
  _atom_site_occupancy
  Co  Co1       1.0  0.62955  0.92034  0.98279  1.0000
  Co  Co2       1.0  0.53249  0.58014  0.51722  1.0000
  Co  Co3       1.0  0.37054  0.07965  0.01719  1.0000
  Co  Co4       1.0  0.46751  0.41990  0.48278  1.0000
  H   H1        1.0  0.25985  0.83154  0.16113  1.0000
  H   H2        1.0  0.25487  0.66905  0.33824  1.0000
  H   H3        1.0  0.74025  0.16845  0.83888  1.0000
  H   H4        1.0  0.74503  0.33093  0.66178  1.0000
  H   H5        1.0  0.94544  0.70826  0.19623  1.0000
  H   H6        1.0  0.85305  0.79215  0.30274  1.0000
  H   H7        1.0  0.05463  0.29174  0.80379  1.0000
  H   H8        1.0  0.14685  0.20783  0.69727  1.0000
  H   H9        1.0  0.96730  0.59647  0.07585  1.0000
  H   H10       1.0  0.64164  0.90330  0.42337  1.0000
  H   H11       1.0  0.03273  0.40354  0.92417  1.0000
  H   H12       1.0  0.35829  0.09670  0.57663  1.0000
  H   H13       1.0  0.19333  0.53755  0.91951  1.0000
  H   H14       1.0  0.65138  0.96207  0.58020  1.0000
  H   H15       1.0  0.80671  0.46245  0.08050  1.0000
  H   H16       1.0  0.34857  0.03793  0.41980  1.0000
  H   H17       1.0  0.55184  0.54307  0.77623  1.0000
  H   H18       1.0  0.87119  0.95663  0.72388  1.0000
  H   H19       1.0  0.44818  0.45694  0.22377  1.0000
  H   H20       1.0  0.12875  0.04338  0.27611  1.0000
  H   H21       1.0  0.86605  0.66225  0.75490  1.0000
  H   H22       1.0  0.28314  0.83805  0.74523  1.0000
  H   H23       1.0  0.13397  0.33775  0.24510  1.0000
  H   H24       1.0  0.71681  0.16196  0.25475  1.0000
  H   H25       1.0  0.81969  0.77699  0.87457  1.0000
  H   H26       1.0  0.47184  0.72379  0.62536  1.0000
  H   H27       1.0  0.18035  0.22301  0.12543  1.0000
  H   H28       1.0  0.52809  0.27621  0.37464  1.0000
  C   C1        1.0  0.13405  0.98598  0.88640  1.0000
  C   C2        1.0  0.00623  0.51398  0.61355  1.0000
  C   C3        1.0  0.86605  0.01402  0.11359  1.0000
  C   C4        1.0  0.99375  0.48602  0.38645  1.0000
  C   C5        1.0  0.27161  0.77963  0.11080  1.0000
  C   C6        1.0  0.16420  0.72084  0.38862  1.0000
  C   C7        1.0  0.72845  0.22037  0.88920  1.0000
  C   C8        1.0  0.83570  0.27916  0.61139  1.0000
  C   C9        1.0  0.09334  0.71103  0.12999  1.0000
  C   C10       1.0  0.93699  0.78933  0.36920  1.0000
  C   C11       1.0  0.90672  0.28897  0.87003  1.0000
  C   C12       1.0  0.06294  0.21067  0.63080  1.0000
  C   C13       1.0  0.10586  0.64870  0.06368  1.0000
  C   C14       1.0  0.82012  0.85125  0.43571  1.0000
  C   C15       1.0  0.89419  0.35130  0.93633  1.0000
  C   C16       1.0  0.17979  0.14875  0.56428  1.0000
  C   C17       1.0  0.30247  0.65295  0.97912  1.0000
  C   C18       1.0  0.93572  0.84702  0.52057  1.0000
  C   C19       1.0  0.69756  0.34706  0.02089  1.0000
  C   C20       1.0  0.06424  0.15298  0.47943  1.0000
  C   C21       1.0  0.33165  0.58958  0.90875  1.0000
  C   C22       1.0  0.83079  0.91022  0.59103  1.0000
  C   C23       1.0  0.66837  0.41043  0.09125  1.0000
  C   C24       1.0  0.16916  0.08978  0.40896  1.0000
  C   C25       1.0  0.53066  0.59258  0.82960  1.0000
  C   C26       1.0  0.95310  0.90729  0.67041  1.0000
  C   C27       1.0  0.46937  0.40742  0.17040  1.0000
  C   C28       1.0  0.04686  0.09272  0.32958  1.0000
  C   C29       1.0  0.70835  0.66018  0.81746  1.0000
  C   C30       1.0  0.18613  0.84002  0.68260  1.0000
  C   C31       1.0  0.29167  0.33983  0.18254  1.0000
  C   C32       1.0  0.81382  0.15999  0.31739  1.0000
  C   C33       1.0  0.68323  0.72450  0.88378  1.0000
  C   C34       1.0  0.29208  0.77592  0.61616  1.0000
  C   C35       1.0  0.31680  0.27550  0.11622  1.0000
  C   C36       1.0  0.70787  0.22408  0.38383  1.0000
  C   C37       1.0  0.48073  0.72277  0.96545  1.0000
  C   C38       1.0  0.16999  0.77746  0.53434  1.0000
  C   C39       1.0  0.51930  0.27724  0.03454  1.0000
  C   C40       1.0  0.82995  0.22255  0.46565  1.0000
  S   S1        1.0  0.39502  0.03543  0.85981  1.0000
  S   S2        1.0  0.29011  0.46439  0.63980  1.0000
  S   S3        1.0  0.60507  0.96456  0.14018  1.0000
  S   S4        1.0  0.70990  0.53562  0.36020  1.0000
  N   N1        1.0  0.94713  0.94839  0.91382  1.0000
  N   N2        1.0  0.80936  0.55151  0.58617  1.0000
  N   N3        1.0  0.05294  0.05161  0.08617  1.0000
  N   N4        1.0  0.19067  0.44846  0.41384  1.0000
  N   N5        1.0  0.45799  0.78867  0.03050  1.0000
  N   N6        1.0  0.27855  0.71165  0.46928  1.0000
  N   N7        1.0  0.54206  0.21133  0.96950  1.0000
  N   N8        1.0  0.72138  0.28835  0.53071  1.0000
