data_image0
_chemical_formula_structural       Zn2H20C32N6O8
_chemical_formula_sum              "Zn2 H20 C32 N6 O8"
_cell_length_a       7.71475
_cell_length_b       10.4772
_cell_length_c       13.2565
_cell_angle_alpha    106.629
_cell_angle_beta     105.327
_cell_angle_gamma    92.6651

_space_group_name_H-M_alt    "P 1"
_space_group_IT_number       1

loop_
  _space_group_symop_operation_xyz
  'x, y, z'

loop_
  _atom_site_type_symbol
  _atom_site_label
  _atom_site_symmetry_multiplicity
  _atom_site_fract_x
  _atom_site_fract_y
  _atom_site_fract_z
  _atom_site_occupancy
  Zn  Zn1       1.0  0.72359  0.04939  0.29216  1.0000
  Zn  Zn2       1.0  0.38595  0.87700  0.18240  1.0000
  H   H1        1.0  0.38969  0.83295  0.86309  1.0000
  H   H2        1.0  0.38575  0.83029  0.67453  1.0000
  H   H3        1.0  0.82629  0.15615  0.81297  1.0000
  H   H4        1.0  0.83159  0.15459  0.00189  1.0000
  H   H5        1.0  0.71539  0.06409  0.61704  1.0000
  H   H6        1.0  0.36874  0.85870  0.52056  1.0000
  H   H7        1.0  0.72400  0.53655  0.18158  1.0000
  H   H8        1.0  0.08187  0.73139  0.29185  1.0000
  H   H9        1.0  0.85381  0.36666  0.19766  1.0000
  H   H10       1.0  0.02457  0.17485  0.18981  1.0000
  H   H11       1.0  0.52819  0.43898  0.30709  1.0000
  H   H12       1.0  0.35574  0.63541  0.30788  1.0000
  H   H13       1.0  0.31509  0.61688  0.01116  1.0000
  H   H14       1.0  0.05131  0.46609  0.86273  1.0000
  H   H15       1.0  0.70385  0.74801  0.98159  1.0000
  H   H16       1.0  0.98263  0.89166  0.11958  1.0000
  H   H17       1.0  0.40594  0.17513  0.48913  1.0000
  H   H18       1.0  0.12822  0.04785  0.34060  1.0000
  H   H19       1.0  0.79291  0.28526  0.48838  1.0000
  H   H20       1.0  0.05609  0.41686  0.64784  1.0000
  C   C1        1.0  0.60904  0.98841  0.05532  1.0000
  C   C2        1.0  0.61022  0.99376  0.94368  1.0000
  C   C3        1.0  0.48446  0.90313  0.85055  1.0000
  C   C4        1.0  0.48262  0.90264  0.74571  1.0000
  C   C5        1.0  0.60531  0.99415  0.73020  1.0000
  C   C6        1.0  0.73049  0.08497  0.82407  1.0000
  C   C7        1.0  0.73372  0.08474  0.92964  1.0000
  C   C8        1.0  0.60643  0.99690  0.62118  1.0000
  C   C9        1.0  0.48464  0.92597  0.52496  1.0000
  C   C10       1.0  0.49622  0.93770  0.41821  1.0000
  C   C11       1.0  0.72529  0.75235  0.22419  1.0000
  C   C12       1.0  0.81610  0.63058  0.21911  1.0000
  C   C13       1.0  0.99725  0.63356  0.25674  1.0000
  C   C14       1.0  0.09281  0.51624  0.25331  1.0000
  C   C15       1.0  0.00142  0.38465  0.21999  1.0000
  C   C16       1.0  0.09742  0.27574  0.21667  1.0000
  C   C17       1.0  0.28783  0.29472  0.24913  1.0000
  C   C18       1.0  0.38863  0.17631  0.24894  1.0000
  C   C19       1.0  0.38036  0.42499  0.28270  1.0000
  C   C20       1.0  0.28410  0.53432  0.28406  1.0000
  C   C21       1.0  0.17704  0.64178  0.00026  1.0000
  C   C22       1.0  0.03057  0.55861  0.91885  1.0000
  C   C23       1.0  0.85640  0.59611  0.91137  1.0000
  C   C24       1.0  0.83718  0.71691  0.98474  1.0000
  C   C25       1.0  0.99143  0.79609  0.06209  1.0000
  C   C26       1.0  0.69579  0.51138  0.82750  1.0000
  C   C27       1.0  0.41300  0.37670  0.67242  1.0000
  C   C28       1.0  0.25268  0.30547  0.58059  1.0000
  C   C29       1.0  0.27245  0.20157  0.49219  1.0000
  C   C30       1.0  0.11827  0.13170  0.40891  1.0000
  C   C31       1.0  0.93146  0.26473  0.49270  1.0000
  C   C32       1.0  0.07789  0.33755  0.58049  1.0000
  N   N1        1.0  0.15751  0.75818  0.07049  1.0000
  N   N2        1.0  0.53111  0.53169  0.84254  1.0000
  N   N3        1.0  0.38679  0.46252  0.76353  1.0000
  N   N4        1.0  0.57788  0.34568  0.66334  1.0000
  N   N5        1.0  0.72206  0.41395  0.74261  1.0000
  N   N6        1.0  0.95138  0.16343  0.40884  1.0000
  O   O1        1.0  0.47880  0.91107  0.05735  1.0000
  O   O2        1.0  0.73734  0.05800  0.13883  1.0000
  O   O3        1.0  0.36413  0.87401  0.33365  1.0000
  O   O4        1.0  0.63216  0.01061  0.41743  1.0000
  O   O5        1.0  0.55210  0.73095  0.18695  1.0000
  O   O6        1.0  0.82114  0.86781  0.26342  1.0000
  O   O7        1.0  0.29437  0.06033  0.20659  1.0000
  O   O8        1.0  0.56007  0.19917  0.29183  1.0000
