data_image0
_chemical_formula_structural       Mg4H24C20N8O24
_chemical_formula_sum              "Mg4 H24 C20 N8 O24"
_cell_length_a       9.12639
_cell_length_b       9.12642
_cell_length_c       11.7225
_cell_angle_alpha    74.6359
_cell_angle_beta     74.635
_cell_angle_gamma    79.4113

_space_group_name_H-M_alt    "P 1"
_space_group_IT_number       1

loop_
  _space_group_symop_operation_xyz
  'x, y, z'

loop_
  _atom_site_type_symbol
  _atom_site_label
  _atom_site_symmetry_multiplicity
  _atom_site_fract_x
  _atom_site_fract_y
  _atom_site_fract_z
  _atom_site_occupancy
  Mg  Mg1       1.0  0.01671  0.52403  0.76811  1.0000
  Mg  Mg2       1.0  0.47597  0.98329  0.73189  1.0000
  Mg  Mg3       1.0  0.98329  0.47597  0.23189  1.0000
  Mg  Mg4       1.0  0.52403  0.01671  0.26811  1.0000
  H   H1        1.0  0.83039  0.37671  0.58982  1.0000
  H   H2        1.0  0.62328  0.16961  0.91019  1.0000
  H   H3        1.0  0.16961  0.62329  0.41018  1.0000
  H   H4        1.0  0.37672  0.83039  0.08982  1.0000
  H   H5        1.0  0.95734  0.12418  0.53348  1.0000
  H   H6        1.0  0.87582  0.04266  0.96653  1.0000
  H   H7        1.0  0.04266  0.87582  0.46652  1.0000
  H   H8        1.0  0.12418  0.95734  0.03347  1.0000
  H   H9        1.0  0.20026  0.70679  0.59987  1.0000
  H   H10       1.0  0.29321  0.79974  0.90014  1.0000
  H   H11       1.0  0.79974  0.29321  0.40013  1.0000
  H   H12       1.0  0.70679  0.20026  0.09986  1.0000
  H   H13       1.0  0.30280  0.55419  0.64402  1.0000
  H   H14       1.0  0.44581  0.69720  0.85597  1.0000
  H   H15       1.0  0.69720  0.44581  0.35598  1.0000
  H   H16       1.0  0.55419  0.30280  0.14402  1.0000
  H   H17       1.0  0.82492  0.51884  0.98838  1.0000
  H   H18       1.0  0.48116  0.17508  0.51162  1.0000
  H   H19       1.0  0.17509  0.48116  0.01161  1.0000
  H   H20       1.0  0.51884  0.82492  0.48838  1.0000
  H   H21       1.0  0.85285  0.35652  0.96396  1.0000
  H   H22       1.0  0.64349  0.14715  0.53603  1.0000
  H   H23       1.0  0.14716  0.64348  0.03604  1.0000
  H   H24       1.0  0.35651  0.85285  0.46397  1.0000
  C   C1        1.0  0.11501  0.11599  0.64280  1.0000
  C   C2        1.0  0.88401  0.88500  0.85721  1.0000
  C   C3        1.0  0.88499  0.88401  0.35721  1.0000
  C   C4        1.0  0.11599  0.11501  0.14279  1.0000
  C   C5        1.0  0.11851  0.22044  0.71055  1.0000
  C   C6        1.0  0.77956  0.88149  0.78945  1.0000
  C   C7        1.0  0.88149  0.77956  0.28945  1.0000
  C   C8        1.0  0.22044  0.11851  0.21055  1.0000
  C   C9        1.0  0.92665  0.30571  0.62272  1.0000
  C   C10       1.0  0.69428  0.07335  0.87729  1.0000
  C   C11       1.0  0.07335  0.69429  0.37728  1.0000
  C   C12       1.0  0.30572  0.92665  0.12272  1.0000
  C   C13       1.0  0.20935  0.97407  0.61612  1.0000
  C   C14       1.0  0.02593  0.79064  0.88388  1.0000
  C   C15       1.0  0.79064  0.02593  0.38388  1.0000
  C   C16       1.0  0.97407  0.20936  0.11612  1.0000
  C   C17       1.0  0.21431  0.23166  0.79354  1.0000
  C   C18       1.0  0.76837  0.78568  0.70646  1.0000
  C   C19       1.0  0.78569  0.76834  0.20646  1.0000
  C   C20       1.0  0.23163  0.21432  0.29355  1.0000
  N   N1        1.0  0.99180  0.17342  0.59041  1.0000
  N   N2        1.0  0.82658  0.00820  0.90959  1.0000
  N   N3        1.0  0.00820  0.82658  0.40959  1.0000
  N   N4        1.0  0.17342  0.99180  0.09040  1.0000
  N   N5        1.0  0.00028  0.33695  0.69566  1.0000
  N   N6        1.0  0.66305  0.99971  0.80434  1.0000
  N   N7        1.0  0.99971  0.66304  0.30434  1.0000
  N   N8        1.0  0.33695  0.00029  0.19566  1.0000
  O   O1        1.0  0.16452  0.90400  0.55201  1.0000
  O   O2        1.0  0.09600  0.83549  0.94800  1.0000
  O   O3        1.0  0.83548  0.09599  0.44800  1.0000
  O   O4        1.0  0.90400  0.16452  0.05200  1.0000
  O   O5        1.0  0.33081  0.92601  0.65348  1.0000
  O   O6        1.0  0.07400  0.66921  0.84653  1.0000
  O   O7        1.0  0.66919  0.07399  0.34653  1.0000
  O   O8        1.0  0.92600  0.33080  0.15347  1.0000
  O   O9        1.0  0.32145  0.12789  0.81752  1.0000
  O   O10       1.0  0.87210  0.67858  0.68248  1.0000
  O   O11       1.0  0.67855  0.87211  0.18248  1.0000
  O   O12       1.0  0.12790  0.32143  0.31753  1.0000
  O   O13       1.0  0.17689  0.35086  0.83743  1.0000
  O   O14       1.0  0.64913  0.82312  0.66257  1.0000
  O   O15       1.0  0.82311  0.64914  0.16257  1.0000
  O   O16       1.0  0.35087  0.17688  0.33743  1.0000
  O   O17       1.0  0.20645  0.59272  0.61947  1.0000
  O   O18       1.0  0.40728  0.79355  0.88053  1.0000
  O   O19       1.0  0.79355  0.40728  0.38052  1.0000
  O   O20       1.0  0.59272  0.20644  0.11947  1.0000
  O   O21       1.0  0.83566  0.46627  0.92341  1.0000
  O   O22       1.0  0.53373  0.16434  0.57659  1.0000
  O   O23       1.0  0.16435  0.53373  0.07659  1.0000
  O   O24       1.0  0.46627  0.83566  0.42341  1.0000
