data_image0
_chemical_formula_structural       Cd2H30C34S4N22
_chemical_formula_sum              "Cd2 H30 C34 S4 N22"
_cell_length_a       8.7784
_cell_length_b       9.85448
_cell_length_c       12.7129
_cell_angle_alpha    104.146
_cell_angle_beta     94.7192
_cell_angle_gamma    100.67

_space_group_name_H-M_alt    "P 1"
_space_group_IT_number       1

loop_
  _space_group_symop_operation_xyz
  'x, y, z'

loop_
  _atom_site_type_symbol
  _atom_site_label
  _atom_site_symmetry_multiplicity
  _atom_site_fract_x
  _atom_site_fract_y
  _atom_site_fract_z
  _atom_site_occupancy
  Cd  Cd1       1.0  0.23922  0.27826  0.37079  1.0000
  Cd  Cd2       1.0  0.76079  0.72174  0.62921  1.0000
  H   H1        1.0  0.98051  0.25378  0.56749  1.0000
  H   H2        1.0  0.01950  0.74622  0.43250  1.0000
  H   H3        1.0  0.46850  0.29147  0.62336  1.0000
  H   H4        1.0  0.53150  0.70853  0.37663  1.0000
  H   H5        1.0  0.50204  0.35794  0.82776  1.0000
  H   H6        1.0  0.49796  0.64206  0.17224  1.0000
  H   H7        1.0  0.34045  0.27702  0.88372  1.0000
  H   H8        1.0  0.65955  0.72298  0.11628  1.0000
  H   H9        1.0  0.24202  0.43099  0.02352  1.0000
  H   H10       1.0  0.75798  0.56901  0.97647  1.0000
  H   H11       1.0  0.26030  0.87262  0.02575  1.0000
  H   H12       1.0  0.73970  0.12738  0.97425  1.0000
  H   H13       1.0  0.45896  0.60386  0.77912  1.0000
  H   H14       1.0  0.54104  0.39614  0.22088  1.0000
  H   H15       1.0  0.10273  0.97957  0.58658  1.0000
  H   H16       1.0  0.89727  0.02044  0.41342  1.0000
  H   H17       1.0  0.09000  0.69340  0.78368  1.0000
  H   H18       1.0  0.91000  0.30660  0.21632  1.0000
  H   H19       1.0  0.50402  0.85838  0.79855  1.0000
  H   H20       1.0  0.49598  0.14162  0.20145  1.0000
  H   H21       1.0  0.42869  0.97551  0.90307  1.0000
  H   H22       1.0  0.57130  0.02449  0.09693  1.0000
  H   H23       1.0  0.05722  0.93707  0.17858  1.0000
  H   H24       1.0  0.94279  0.06293  0.82142  1.0000
  H   H25       1.0  0.46162  0.01806  0.40591  1.0000
  H   H26       1.0  0.53838  0.98194  0.59410  1.0000
  H   H27       1.0  0.02946  0.66536  0.11024  1.0000
  H   H28       1.0  0.97054  0.33464  0.88976  1.0000
  H   H29       1.0  0.16068  0.58422  0.17494  1.0000
  H   H30       1.0  0.83932  0.41578  0.82505  1.0000
  C   C1        1.0  0.09851  0.26628  0.60710  1.0000
  C   C2        1.0  0.90149  0.73372  0.39289  1.0000
  C   C3        1.0  0.34579  0.28673  0.63193  1.0000
  C   C4        1.0  0.65421  0.71327  0.36807  1.0000
  C   C5        1.0  0.37931  0.35635  0.83867  1.0000
  C   C6        1.0  0.62069  0.64365  0.16133  1.0000
  C   C7        1.0  0.35354  0.50194  0.89592  1.0000
  C   C8        1.0  0.64646  0.49806  0.10408  1.0000
  C   C9        1.0  0.27620  0.52092  0.98852  1.0000
  C   C10       1.0  0.72380  0.47908  0.01148  1.0000
  C   C11       1.0  0.24343  0.65416  0.03694  1.0000
  C   C12       1.0  0.75657  0.34584  0.96305  1.0000
  C   C13       1.0  0.28863  0.76870  0.99153  1.0000
  C   C14       1.0  0.71136  0.23130  0.00848  1.0000
  C   C15       1.0  0.36686  0.75055  0.89910  1.0000
  C   C16       1.0  0.63314  0.24945  0.10090  1.0000
  C   C17       1.0  0.39958  0.61739  0.85191  1.0000
  C   C18       1.0  0.60043  0.38261  0.14809  1.0000
  C   C19       1.0  0.13652  0.92321  0.64512  1.0000
  C   C20       1.0  0.86348  0.07680  0.35488  1.0000
  C   C21       1.0  0.12724  0.77700  0.74393  1.0000
  C   C22       1.0  0.87275  0.22300  0.25607  1.0000
  C   C23       1.0  0.40427  0.86941  0.84418  1.0000
  C   C24       1.0  0.59573  0.13059  0.15582  1.0000
  C   C25       1.0  0.15934  0.92797  0.22865  1.0000
  C   C26       1.0  0.84066  0.07203  0.77135  1.0000
  C   C27       1.0  0.36367  0.96384  0.34283  1.0000
  C   C28       1.0  0.63633  0.03616  0.65717  1.0000
  C   C29       1.0  0.15381  0.66996  0.13456  1.0000
  C   C30       1.0  0.84619  0.33004  0.86544  1.0000
  C   C31       1.0  0.20275  0.22286  0.10628  1.0000
  C   C32       1.0  0.79725  0.77715  0.89373  1.0000
  C   C33       1.0  0.37269  0.61849  0.53512  1.0000
  C   C34       1.0  0.62732  0.38152  0.46489  1.0000
  S   S1        1.0  0.20771  0.55779  0.45412  1.0000
  S   S2        1.0  0.79229  0.44221  0.54589  1.0000
  S   S3        1.0  0.18653  0.11704  0.98494  1.0000
  S   S4        1.0  0.81346  0.88297  0.01507  1.0000
  N   N1        1.0  0.22561  0.25819  0.55223  1.0000
  N   N2        1.0  0.77439  0.74181  0.44777  1.0000
  N   N3        1.0  0.29134  0.30933  0.72898  1.0000
  N   N4        1.0  0.70866  0.69067  0.27102  1.0000
  N   N5        1.0  0.13354  0.29701  0.71501  1.0000
  N   N6        1.0  0.86646  0.70300  0.28499  1.0000
  N   N7        1.0  0.03932  0.81210  0.66798  1.0000
  N   N8        1.0  0.96068  0.18790  0.33201  1.0000
  N   N9        1.0  0.27812  0.95871  0.70259  1.0000
  N   N10       1.0  0.72188  0.04129  0.29741  1.0000
  N   N11       1.0  0.26985  0.86406  0.76504  1.0000
  N   N12       1.0  0.73015  0.13594  0.23496  1.0000
  N   N13       1.0  0.25294  0.03053  0.30897  1.0000
  N   N14       1.0  0.74706  0.96946  0.69103  1.0000
  N   N15       1.0  0.34363  0.82710  0.28830  1.0000
  N   N16       1.0  0.65637  0.17290  0.71170  1.0000
  N   N17       1.0  0.21227  0.80617  0.21627  1.0000
  N   N18       1.0  0.78773  0.19383  0.78374  1.0000
  N   N19       1.0  0.21628  0.30318  0.19515  1.0000
  N   N20       1.0  0.78373  0.69684  0.80485  1.0000
  N   N21       1.0  0.49142  0.66533  0.59563  1.0000
  N   N22       1.0  0.50859  0.33468  0.40437  1.0000
