data_image0
_chemical_formula_structural       Ag2P2H32C40S2N2O6
_chemical_formula_sum              "Ag2 P2 H32 C40 S2 N2 O6"
_cell_length_a       8.50522
_cell_length_b       11.2732
_cell_length_c       11.5233
_cell_angle_alpha    90.7297
_cell_angle_beta     106.59
_cell_angle_gamma    103.594

_space_group_name_H-M_alt    "P 1"
_space_group_IT_number       1

loop_
  _space_group_symop_operation_xyz
  'x, y, z'

loop_
  _atom_site_type_symbol
  _atom_site_label
  _atom_site_symmetry_multiplicity
  _atom_site_fract_x
  _atom_site_fract_y
  _atom_site_fract_z
  _atom_site_occupancy
  Ag  Ag1       1.0  0.68779  0.48679  0.73654  1.0000
  Ag  Ag2       1.0  0.31222  0.51321  0.26346  1.0000
  P   P1        1.0  0.81332  0.60656  0.92098  1.0000
  P   P2        1.0  0.18668  0.39344  0.07902  1.0000
  H   H1        1.0  0.85091  0.04122  0.57431  1.0000
  H   H2        1.0  0.14910  0.95878  0.42569  1.0000
  H   H3        1.0  0.72176  0.90358  0.38100  1.0000
  H   H4        1.0  0.27825  0.09642  0.61900  1.0000
  H   H5        1.0  0.49048  0.94946  0.21578  1.0000
  H   H6        1.0  0.50952  0.05053  0.78422  1.0000
  H   H7        1.0  0.37313  0.12867  0.24262  1.0000
  H   H8        1.0  0.62685  0.87132  0.75738  1.0000
  H   H9        1.0  0.87803  0.72737  0.71247  1.0000
  H   H10       1.0  0.12198  0.27264  0.28753  1.0000
  H   H11       1.0  0.06490  0.92451  0.69068  1.0000
  H   H12       1.0  0.93509  0.07550  0.30931  1.0000
  H   H13       1.0  0.24758  0.06312  0.87480  1.0000
  H   H14       1.0  0.75242  0.93688  0.12520  1.0000
  H   H15       1.0  0.24102  0.00137  0.07971  1.0000
  H   H16       1.0  0.75899  0.99864  0.92029  1.0000
  H   H17       1.0  0.05657  0.80468  0.10379  1.0000
  H   H18       1.0  0.94344  0.19533  0.89622  1.0000
  H   H19       1.0  0.49351  0.66562  0.82788  1.0000
  H   H20       1.0  0.50649  0.33438  0.17212  1.0000
  H   H21       1.0  0.30703  0.74342  0.92543  1.0000
  H   H22       1.0  0.69297  0.25658  0.07457  1.0000
  H   H23       1.0  0.37077  0.75582  0.15035  1.0000
  H   H24       1.0  0.62923  0.24418  0.84966  1.0000
  H   H25       1.0  0.63264  0.70369  0.27916  1.0000
  H   H26       1.0  0.36737  0.29631  0.72084  1.0000
  H   H27       1.0  0.82893  0.64134  0.18377  1.0000
  H   H28       1.0  0.17108  0.35866  0.81623  1.0000
  H   H29       1.0  0.02482  0.58970  0.11093  1.0000
  H   H30       1.0  0.97518  0.41030  0.88907  1.0000
  H   H31       1.0  0.85858  0.45429  0.06013  1.0000
  H   H32       1.0  0.14142  0.54571  0.93987  1.0000
  C   C1        1.0  0.74184  0.25457  0.62097  1.0000
  C   C2        1.0  0.25815  0.74543  0.37903  1.0000
  C   C3        1.0  0.68630  0.16150  0.51405  1.0000
  C   C4        1.0  0.31369  0.83849  0.48596  1.0000
  C   C5        1.0  0.74883  0.06019  0.50083  1.0000
  C   C6        1.0  0.25117  0.93980  0.49917  1.0000
  C   C7        1.0  0.67612  0.98420  0.39257  1.0000
  C   C8        1.0  0.32388  0.01579  0.60743  1.0000
  C   C9        1.0  0.54390  0.00941  0.29965  1.0000
  C   C10       1.0  0.45609  0.99058  0.70035  1.0000
  C   C11       1.0  0.47863  0.10991  0.31316  1.0000
  C   C12       1.0  0.52137  0.89008  0.68684  1.0000
  C   C13       1.0  0.55287  0.18394  0.42128  1.0000
  C   C14       1.0  0.44712  0.81605  0.57872  1.0000
  C   C15       1.0  0.95557  0.75177  0.90935  1.0000
  C   C16       1.0  0.04444  0.24824  0.09065  1.0000
  C   C17       1.0  0.95836  0.78689  0.79346  1.0000
  C   C18       1.0  0.04165  0.21312  0.20654  1.0000
  C   C19       1.0  0.06298  0.89870  0.78113  1.0000
  C   C20       1.0  0.93702  0.10131  0.21887  1.0000
  C   C21       1.0  0.16599  0.97560  0.88403  1.0000
  C   C22       1.0  0.83402  0.02441  0.11597  1.0000
  C   C23       1.0  0.16297  0.94052  0.99944  1.0000
  C   C24       1.0  0.83704  0.05948  0.00056  1.0000
  C   C25       1.0  0.05801  0.82963  0.01290  1.0000
  C   C26       1.0  0.94200  0.17038  0.98710  1.0000
  C   C27       1.0  0.67458  0.65010  0.99888  1.0000
  C   C28       1.0  0.32541  0.34990  0.00112  1.0000
  C   C29       1.0  0.52620  0.67769  0.92681  1.0000
  C   C30       1.0  0.47380  0.32231  0.07319  1.0000
  C   C31       1.0  0.41968  0.71866  0.98146  1.0000
  C   C32       1.0  0.58032  0.28135  0.01854  1.0000
  C   C33       1.0  0.45701  0.72728  0.10808  1.0000
  C   C34       1.0  0.54299  0.27272  0.89192  1.0000
  C   C35       1.0  0.60313  0.69760  0.18024  1.0000
  C   C36       1.0  0.39688  0.30241  0.81976  1.0000
  C   C37       1.0  0.71317  0.66051  0.12604  1.0000
  C   C38       1.0  0.28684  0.33949  0.87396  1.0000
  C   C39       1.0  0.94595  0.52710  0.03042  1.0000
  C   C40       1.0  0.05405  0.47291  0.96958  1.0000
  S   S1        1.0  0.50209  0.31613  0.46978  1.0000
  S   S2        1.0  0.49791  0.68386  0.53022  1.0000
  N   N1        1.0  0.64700  0.33978  0.60271  1.0000
  N   N2        1.0  0.35299  0.66021  0.39729  1.0000
  O   O1        1.0  0.53926  0.41443  0.39294  1.0000
  O   O2        1.0  0.46073  0.58556  0.60706  1.0000
  O   O3        1.0  0.33277  0.28752  0.48307  1.0000
  O   O4        1.0  0.66722  0.71247  0.51693  1.0000
  O   O5        1.0  0.85824  0.25398  0.71475  1.0000
  O   O6        1.0  0.14176  0.74601  0.28525  1.0000
