data_image0
_chemical_formula_structural       Mn2H16C24N4O8
_chemical_formula_sum              "Mn2 H16 C24 N4 O8"
_cell_length_a       8.50561
_cell_length_b       8.52817
_cell_length_c       8.84925
_cell_angle_alpha    69.3335
_cell_angle_beta     69.2937
_cell_angle_gamma    64.5691

_space_group_name_H-M_alt    "P 1"
_space_group_IT_number       1

loop_
  _space_group_symop_operation_xyz
  'x, y, z'

loop_
  _atom_site_type_symbol
  _atom_site_label
  _atom_site_symmetry_multiplicity
  _atom_site_fract_x
  _atom_site_fract_y
  _atom_site_fract_z
  _atom_site_occupancy
  Mn  Mn1       1.0  0.85862  0.14213  0.75032  1.0000
  Mn  Mn2       1.0  0.11286  0.88675  0.24971  1.0000
  H   H1        1.0  0.42202  0.00257  0.11503  1.0000
  H   H2        1.0  0.93502  0.48761  0.59767  1.0000
  H   H3        1.0  0.50958  0.07052  0.90402  1.0000
  H   H4        1.0  0.00104  0.57610  0.38699  1.0000
  H   H5        1.0  0.71317  0.29221  0.08648  1.0000
  H   H6        1.0  0.29614  0.61337  0.52372  1.0000
  H   H7        1.0  0.38565  0.70478  0.97342  1.0000
  H   H8        1.0  0.70720  0.28899  0.41478  1.0000
  H   H9        1.0  0.75468  0.74865  0.46231  1.0000
  H   H10       1.0  0.82990  0.77619  0.95626  1.0000
  H   H11       1.0  0.22933  0.16021  0.54341  1.0000
  H   H12       1.0  0.24741  0.24875  0.03606  1.0000
  H   H13       1.0  0.55440  0.56472  0.62670  1.0000
  H   H14       1.0  0.71118  0.54233  0.17472  1.0000
  H   H15       1.0  0.46141  0.28265  0.32546  1.0000
  H   H16       1.0  0.43142  0.44878  0.86992  1.0000
  C   C1        1.0  0.73922  0.97388  0.15171  1.0000
  C   C2        1.0  0.96086  0.78945  0.62574  1.0000
  C   C3        1.0  0.21150  0.03713  0.87470  1.0000
  C   C4        1.0  0.02604  0.26174  0.34878  1.0000
  C   C5        1.0  0.60991  0.88054  0.26986  1.0000
  C   C6        1.0  0.88844  0.65371  0.75850  1.0000
  C   C7        1.0  0.34720  0.10991  0.74221  1.0000
  C   C8        1.0  0.11929  0.39098  0.23017  1.0000
  C   C9        1.0  0.64230  0.76217  0.42111  1.0000
  C   C10       1.0  0.82594  0.66601  0.92462  1.0000
  C   C11       1.0  0.33716  0.16851  0.57559  1.0000
  C   C12       1.0  0.23549  0.35998  0.07757  1.0000
  C   C13       1.0  0.45685  0.90617  0.22658  1.0000
  C   C14       1.0  0.88416  0.50890  0.72256  1.0000
  C   C15       1.0  0.48981  0.11860  0.77873  1.0000
  C   C16       1.0  0.09552  0.54258  0.27406  1.0000
  C   C17       1.0  0.52896  0.66457  0.51234  1.0000
  C   C18       1.0  0.76098  0.53641  0.04449  1.0000
  C   C19       1.0  0.46594  0.23529  0.45600  1.0000
  C   C20       1.0  0.33306  0.47316  0.98547  1.0000
  C   C21       1.0  0.76034  0.39757  0.99674  1.0000
  C   C22       1.0  0.38385  0.69093  0.45638  1.0000
  C   C23       1.0  0.30824  0.61710  0.04177  1.0000
  C   C24       1.0  0.60237  0.24051  0.50432  1.0000
  N   N1        1.0  0.82045  0.38387  0.83720  1.0000
  N   N2        1.0  0.34231  0.81574  0.31635  1.0000
  N   N3        1.0  0.18513  0.65754  0.18316  1.0000
  N   N4        1.0  0.61455  0.18313  0.66422  1.0000
  O   O1        1.0  0.70816  0.06078  0.00807  1.0000
  O   O2        1.0  0.00616  0.77128  0.47595  1.0000
  O   O3        1.0  0.22846  0.99340  0.02473  1.0000
  O   O4        1.0  0.94135  0.29161  0.49330  1.0000
  O   O5        1.0  0.86674  0.95961  0.20328  1.0000
  O   O6        1.0  0.97860  0.90627  0.66731  1.0000
  O   O7        1.0  0.09554  0.01763  0.83285  1.0000
  O   O8        1.0  0.03805  0.13603  0.29660  1.0000
