data_image0
_chemical_formula_structural       Ni2H16C24N16
_chemical_formula_sum              "Ni2 H16 C24 N16"
_cell_length_a       6.86912
_cell_length_b       9.74174
_cell_length_c       10.4226
_cell_angle_alpha    110.373
_cell_angle_beta     103.885
_cell_angle_gamma    104.246

_space_group_name_H-M_alt    "P 1"
_space_group_IT_number       1

loop_
  _space_group_symop_operation_xyz
  'x, y, z'

loop_
  _atom_site_type_symbol
  _atom_site_label
  _atom_site_symmetry_multiplicity
  _atom_site_fract_x
  _atom_site_fract_y
  _atom_site_fract_z
  _atom_site_occupancy
  Ni  Ni1       1.0  0.59576  0.88518  0.89655  1.0000
  Ni  Ni2       1.0  0.40424  0.11481  0.10344  1.0000
  H   H1        1.0  0.63685  0.93630  0.62106  1.0000
  H   H2        1.0  0.36314  0.06370  0.37893  1.0000
  H   H3        1.0  0.48374  0.76640  0.35161  1.0000
  H   H4        1.0  0.51626  0.23360  0.64839  1.0000
  H   H5        1.0  0.24151  0.48199  0.25745  1.0000
  H   H6        1.0  0.75850  0.51801  0.74256  1.0000
  H   H7        1.0  0.05471  0.26761  0.31680  1.0000
  H   H8        1.0  0.94530  0.73239  0.68320  1.0000
  H   H9        1.0  0.98204  0.18079  0.50349  1.0000
  H   H10       1.0  0.01796  0.81921  0.49651  1.0000
  H   H11       1.0  0.02399  0.24962  0.76978  1.0000
  H   H12       1.0  0.97602  0.75038  0.23022  1.0000
  H   H13       1.0  0.18570  0.45435  0.02976  1.0000
  H   H14       1.0  0.81430  0.54565  0.97024  1.0000
  H   H15       1.0  0.41269  0.72707  0.08758  1.0000
  H   H16       1.0  0.58732  0.27293  0.91242  1.0000
  C   C1        1.0  0.52613  0.81540  0.57627  1.0000
  C   C2        1.0  0.47386  0.18459  0.42373  1.0000
  C   C3        1.0  0.43820  0.71787  0.42446  1.0000
  C   C4        1.0  0.56181  0.28214  0.57555  1.0000
  C   C5        1.0  0.30669  0.56326  0.37350  1.0000
  C   C6        1.0  0.69331  0.43673  0.62649  1.0000
  C   C7        1.0  0.25751  0.50704  0.47426  1.0000
  C   C8        1.0  0.74249  0.49297  0.52575  1.0000
  C   C9        1.0  0.12233  0.34942  0.43272  1.0000
  C   C10       1.0  0.87768  0.65057  0.56728  1.0000
  C   C11       1.0  0.08154  0.30198  0.53588  1.0000
  C   C12       1.0  0.91846  0.69802  0.46412  1.0000
  C   C13       1.0  0.16765  0.40955  0.68773  1.0000
  C   C14       1.0  0.83235  0.59046  0.31227  1.0000
  C   C15       1.0  0.12512  0.36922  0.79859  1.0000
  C   C16       1.0  0.87487  0.63077  0.20141  1.0000
  C   C17       1.0  0.21332  0.48286  0.94203  1.0000
  C   C18       1.0  0.78669  0.51715  0.05797  1.0000
  C   C19       1.0  0.34317  0.63606  0.97545  1.0000
  C   C20       1.0  0.65683  0.36393  0.02454  1.0000
  C   C21       1.0  0.30157  0.56649  0.73185  1.0000
  C   C22       1.0  0.69842  0.43351  0.26816  1.0000
  C   C23       1.0  0.35009  0.61438  0.62452  1.0000
  C   C24       1.0  0.64991  0.38562  0.37547  1.0000
  N   N1        1.0  0.48515  0.76489  0.67379  1.0000
  N   N2        1.0  0.51485  0.23512  0.32621  1.0000
  N   N3        1.0  0.38681  0.67719  0.87342  1.0000
  N   N4        1.0  0.61320  0.32281  0.12658  1.0000
  N   N5        1.0  0.80631  0.07413  0.89111  1.0000
  N   N6        1.0  0.19369  0.92588  0.10890  1.0000
  N   N7        1.0  0.98380  0.13801  0.97958  1.0000
  N   N8        1.0  0.01618  0.86198  0.02041  1.0000
  N   N9        1.0  0.16074  0.20800  0.06826  1.0000
  N   N10       1.0  0.83927  0.79200  0.93174  1.0000
  N   N11       1.0  0.34046  0.98240  0.88171  1.0000
  N   N12       1.0  0.65954  0.01760  0.11829  1.0000
  N   N13       1.0  0.29586  0.02482  0.78635  1.0000
  N   N14       1.0  0.70414  0.97518  0.21365  1.0000
  N   N15       1.0  0.25243  0.06324  0.69181  1.0000
  N   N16       1.0  0.74757  0.93677  0.30819  1.0000
