data_image0
_chemical_formula_structural       Ag2P4H26C20N4O16
_chemical_formula_sum              "Ag2 P4 H26 C20 N4 O16"
_cell_length_a       8.04731
_cell_length_b       10.3239
_cell_length_c       10.6276
_cell_angle_alpha    63.9164
_cell_angle_beta     66.4331
_cell_angle_gamma    74.9962

_space_group_name_H-M_alt    "P 1"
_space_group_IT_number       1

loop_
  _space_group_symop_operation_xyz
  'x, y, z'

loop_
  _atom_site_type_symbol
  _atom_site_label
  _atom_site_symmetry_multiplicity
  _atom_site_fract_x
  _atom_site_fract_y
  _atom_site_fract_z
  _atom_site_occupancy
  Ag  Ag1       1.0  0.83762  0.93750  0.01042  1.0000
  Ag  Ag2       1.0  0.16238  0.06250  0.98958  1.0000
  P   P1        1.0  0.06616  0.10436  0.59149  1.0000
  P   P2        1.0  0.93384  0.89564  0.40852  1.0000
  P   P3        1.0  0.52685  0.30015  0.50101  1.0000
  P   P4        1.0  0.47316  0.69985  0.49898  1.0000
  H   H1        1.0  0.60634  0.14821  0.82103  1.0000
  H   H2        1.0  0.39366  0.85179  0.17897  1.0000
  H   H3        1.0  0.37324  0.35455  0.82200  1.0000
  H   H4        1.0  0.62676  0.64545  0.17799  1.0000
  H   H5        1.0  0.40469  0.30029  0.24127  1.0000
  H   H6        1.0  0.59530  0.69972  0.75873  1.0000
  H   H7        1.0  0.63117  0.09191  0.22526  1.0000
  H   H8        1.0  0.36883  0.90810  0.77474  1.0000
  H   H9        1.0  0.24801  0.55398  0.80150  1.0000
  H   H10       1.0  0.75199  0.44602  0.19850  1.0000
  H   H11       1.0  0.95821  0.22372  0.19616  1.0000
  H   H12       1.0  0.04179  0.77628  0.80384  1.0000
  H   H13       1.0  0.81191  0.54507  0.74226  1.0000
  H   H14       1.0  0.18809  0.45493  0.25774  1.0000
  H   H15       1.0  0.00783  0.31348  0.76285  1.0000
  H   H16       1.0  0.99217  0.68652  0.23715  1.0000
  H   H17       1.0  0.87527  0.29281  0.50250  1.0000
  H   H18       1.0  0.12473  0.70719  0.49750  1.0000
  H   H19       1.0  0.84569  0.99336  0.62200  1.0000
  H   H20       1.0  0.15431  0.00664  0.37801  1.0000
  H   H21       1.0  0.28638  0.17792  0.66944  1.0000
  H   H22       1.0  0.71363  0.82208  0.33056  1.0000
  H   H23       1.0  0.68041  0.09797  0.45846  1.0000
  H   H24       1.0  0.31959  0.90203  0.54154  1.0000
  H   H25       1.0  0.37524  0.51383  0.43526  1.0000
  H   H26       1.0  0.62476  0.48617  0.56473  1.0000
  C   C1        1.0  0.55730  0.18491  0.91251  1.0000
  C   C2        1.0  0.44270  0.81509  0.08749  1.0000
  C   C3        1.0  0.42623  0.30236  0.91402  1.0000
  C   C4        1.0  0.57377  0.69764  0.08598  1.0000
  C   C5        1.0  0.36808  0.35102  0.03078  1.0000
  C   C6        1.0  0.63191  0.64898  0.96922  1.0000
  C   C7        1.0  0.44168  0.27125  0.14605  1.0000
  C   C8        1.0  0.55832  0.72875  0.85395  1.0000
  C   C9        1.0  0.57067  0.15370  0.13804  1.0000
  C   C10       1.0  0.42933  0.84631  0.86196  1.0000
  C   C11       1.0  0.24030  0.48298  0.02935  1.0000
  C   C12       1.0  0.75969  0.51702  0.97065  1.0000
  C   C13       1.0  0.19401  0.57629  0.90218  1.0000
  C   C14       1.0  0.80598  0.42371  0.09782  1.0000
  C   C15       1.0  0.92077  0.29770  0.09846  1.0000
  C   C16       1.0  0.07923  0.70230  0.90154  1.0000
  C   C17       1.0  0.83663  0.47721  0.84675  1.0000
  C   C18       1.0  0.16336  0.52279  0.15325  1.0000
  C   C19       1.0  0.94919  0.34874  0.85588  1.0000
  C   C20       1.0  0.05080  0.65126  0.14412  1.0000
  N   N1        1.0  0.63096  0.11202  0.02194  1.0000
  N   N2        1.0  0.36904  0.88798  0.97806  1.0000
  N   N3        1.0  0.99084  0.25919  0.98003  1.0000
  N   N4        1.0  0.00916  0.74082  0.01997  1.0000
  O   O1        1.0  0.13471  0.11002  0.70246  1.0000
  O   O2        1.0  0.86528  0.88999  0.29755  1.0000
  O   O3        1.0  0.01058  0.26032  0.48535  1.0000
  O   O4        1.0  0.98943  0.73968  0.51465  1.0000
  O   O5        1.0  0.20762  0.02984  0.48855  1.0000
  O   O6        1.0  0.79238  0.97016  0.51146  1.0000
  O   O7        1.0  0.88861  0.02042  0.68617  1.0000
  O   O8        1.0  0.11139  0.97958  0.31384  1.0000
  O   O9        1.0  0.39564  0.22479  0.66106  1.0000
  O   O10       1.0  0.60436  0.77521  0.33894  1.0000
  O   O11       1.0  0.60148  0.19645  0.41586  1.0000
  O   O12       1.0  0.39852  0.80354  0.58414  1.0000
  O   O13       1.0  0.67385  0.35724  0.51388  1.0000
  O   O14       1.0  0.32616  0.64275  0.48611  1.0000
  O   O15       1.0  0.41631  0.42593  0.40464  1.0000
  O   O16       1.0  0.58370  0.57406  0.59535  1.0000
