data_image0
_chemical_formula_structural       Cd2Ni2H28C20N16
_chemical_formula_sum              "Cd2 Ni2 H28 C20 N16"
_cell_length_a       8.55246
_cell_length_b       8.59187
_cell_length_c       11.3629
_cell_angle_alpha    75.0698
_cell_angle_beta     75.048
_cell_angle_gamma    70.3601

_space_group_name_H-M_alt    "P 1"
_space_group_IT_number       1

loop_
  _space_group_symop_operation_xyz
  'x, y, z'

loop_
  _atom_site_type_symbol
  _atom_site_label
  _atom_site_symmetry_multiplicity
  _atom_site_fract_x
  _atom_site_fract_y
  _atom_site_fract_z
  _atom_site_occupancy
  Cd  Cd1       1.0  0.16683  0.34541  0.72796  1.0000
  Cd  Cd2       1.0  0.83318  0.65459  0.27204  1.0000
  Ni  Ni1       1.0  1.00000  0.00000  0.50000  1.0000
  Ni  Ni2       1.0  0.50000  0.50000  1.00000  1.0000
  H   H1        1.0  0.21263  0.51035  0.47663  1.0000
  H   H2        1.0  0.78737  0.48966  0.52337  1.0000
  H   H3        1.0  0.40109  0.37588  0.49811  1.0000
  H   H4        1.0  0.59891  0.62412  0.50189  1.0000
  H   H5        1.0  0.33338  0.56246  0.54199  1.0000
  H   H6        1.0  0.66662  0.43754  0.45801  1.0000
  H   H7        1.0  0.32710  0.98764  0.76181  1.0000
  H   H8        1.0  0.67290  0.01236  0.23819  1.0000
  H   H9        1.0  0.42512  0.06543  0.62558  1.0000
  H   H10       1.0  0.57488  0.93457  0.37442  1.0000
  H   H11       1.0  0.94152  0.20656  0.93988  1.0000
  H   H12       1.0  0.05848  0.79344  0.06012  1.0000
  H   H13       1.0  0.05471  0.29341  0.98540  1.0000
  H   H14       1.0  0.94529  0.70659  0.01460  1.0000
  H   H15       1.0  0.13915  0.10158  0.95430  1.0000
  H   H16       1.0  0.86085  0.89842  0.04570  1.0000
  H   H17       1.0  0.85320  0.99011  0.80168  1.0000
  H   H18       1.0  0.14680  0.00989  0.19832  1.0000
  H   H19       1.0  0.48271  0.06854  0.86996  1.0000
  H   H20       1.0  0.51729  0.93146  0.13004  1.0000
  H   H21       1.0  0.58165  0.16465  0.72779  1.0000
  H   H22       1.0  0.41835  0.83535  0.27221  1.0000
  H   H23       1.0  0.52761  0.75564  0.72137  1.0000
  H   H24       1.0  0.47239  0.24437  0.27863  1.0000
  H   H25       1.0  0.08546  0.72060  0.78557  1.0000
  H   H26       1.0  0.91454  0.27939  0.21443  1.0000
  H   H27       1.0  0.76751  0.49377  0.72067  1.0000
  H   H28       1.0  0.23249  0.50623  0.27933  1.0000
  C   C1        1.0  0.21968  0.88865  0.52327  1.0000
  C   C2        1.0  0.78032  0.11134  0.47673  1.0000
  C   C3        1.0  0.38437  0.46953  0.89640  1.0000
  C   C4        1.0  0.61564  0.53047  0.10360  1.0000
  C   C5        1.0  0.00115  0.16836  0.57108  1.0000
  C   C6        1.0  0.99885  0.83163  0.42892  1.0000
  C   C7        1.0  0.82942  0.88325  0.78215  1.0000
  C   C8        1.0  0.17058  0.11675  0.21786  1.0000
  C   C9        1.0  0.52921  0.05853  0.77159  1.0000
  C   C10       1.0  0.47079  0.94147  0.22841  1.0000
  C   C11       1.0  0.64728  0.75427  0.73931  1.0000
  C   C12       1.0  0.35272  0.24573  0.26069  1.0000
  C   C13       1.0  0.95842  0.73348  0.77456  1.0000
  C   C14       1.0  0.04158  0.26652  0.22544  1.0000
  C   C15       1.0  0.66929  0.89620  0.76372  1.0000
  C   C16       1.0  0.33071  0.10380  0.23628  1.0000
  C   C17       1.0  0.78191  0.60779  0.73651  1.0000
  C   C18       1.0  0.21809  0.39221  0.26350  1.0000
  C   C19       1.0  0.36955  0.72061  0.99379  1.0000
  C   C20       1.0  0.63045  0.27938  0.00620  1.0000
  N   N1        1.0  0.29713  0.46330  0.53541  1.0000
  N   N2        1.0  0.70287  0.53670  0.46459  1.0000
  N   N3        1.0  0.38463  0.07909  0.71635  1.0000
  N   N4        1.0  0.61537  0.92091  0.28365  1.0000
  N   N5        1.0  0.00100  0.27364  0.61981  1.0000
  N   N6        1.0  0.99900  0.72635  0.38020  1.0000
  N   N7        1.0  0.06029  0.21905  0.92652  1.0000
  N   N8        1.0  0.93972  0.78096  0.07348  1.0000
  N   N9        1.0  0.31266  0.44908  0.82910  1.0000
  N   N10       1.0  0.68735  0.55092  0.17090  1.0000
  N   N11       1.0  0.35956  0.81697  0.53692  1.0000
  N   N12       1.0  0.64043  0.18303  0.46308  1.0000
  N   N13       1.0  0.28613  0.86153  0.98916  1.0000
  N   N14       1.0  0.71387  0.13846  0.01083  1.0000
  N   N15       1.0  0.93570  0.59673  0.75255  1.0000
  N   N16       1.0  0.06430  0.40327  0.24745  1.0000
