data_image0
_chemical_formula_structural       Cd2H24Pt2C20N12O4
_chemical_formula_sum              "Cd2 H24 Pt2 C20 N12 O4"
_cell_length_a       8.64355
_cell_length_b       8.72686
_cell_length_c       11.386
_cell_angle_alpha    73.6842
_cell_angle_beta     72.454
_cell_angle_gamma    68.785

_space_group_name_H-M_alt    "P 1"
_space_group_IT_number       1

loop_
  _space_group_symop_operation_xyz
  'x, y, z'

loop_
  _atom_site_type_symbol
  _atom_site_label
  _atom_site_symmetry_multiplicity
  _atom_site_fract_x
  _atom_site_fract_y
  _atom_site_fract_z
  _atom_site_occupancy
  Cd  Cd1       1.0  0.33767  0.14872  0.26667  1.0000
  Cd  Cd2       1.0  0.66233  0.85128  0.73333  1.0000
  H   H1        1.0  0.07071  0.41138  0.37875  1.0000
  H   H2        1.0  0.92929  0.58862  0.62125  1.0000
  H   H3        1.0  0.17497  0.50068  0.24609  1.0000
  H   H4        1.0  0.82503  0.49932  0.75390  1.0000
  H   H5        1.0  0.91846  0.33973  0.26647  1.0000
  H   H6        1.0  0.08154  0.66027  0.73353  1.0000
  H   H7        1.0  0.02760  0.43691  0.12619  1.0000
  H   H8        1.0  0.97239  0.56310  0.87381  1.0000
  H   H9        1.0  0.36662  0.41381  0.04744  1.0000
  H   H10       1.0  0.63338  0.58619  0.95255  1.0000
  H   H11       1.0  0.55509  0.30433  0.04925  1.0000
  H   H12       1.0  0.44491  0.69567  0.95075  1.0000
  H   H13       1.0  0.68129  0.54434  0.14864  1.0000
  H   H14       1.0  0.31871  0.45565  0.85136  1.0000
  H   H15       1.0  0.17685  0.93679  0.47427  1.0000
  H   H16       1.0  0.82314  0.06321  0.52573  1.0000
  H   H17       1.0  0.07721  0.12060  0.49877  1.0000
  H   H18       1.0  0.92279  0.87941  0.50122  1.0000
  H   H19       1.0  0.70018  0.97378  0.33996  1.0000
  H   H20       1.0  0.29982  0.02622  0.66004  1.0000
  H   H21       1.0  0.44884  0.81459  0.16159  1.0000
  H   H22       1.0  0.55115  0.18541  0.83841  1.0000
  H   H23       1.0  0.94633  0.71653  0.32735  1.0000
  H   H24       1.0  0.05367  0.28347  0.67265  1.0000
  Pt  Pt1       1.0  1.00000  0.00000  1.00000  1.0000
  Pt  Pt2       1.0  0.50000  0.50000  0.50000  1.0000
  C   C1        1.0  0.11643  0.03784  0.10998  1.0000
  C   C2        1.0  0.88358  0.96216  0.89001  1.0000
  C   C3        1.0  0.49014  0.34166  0.41014  1.0000
  C   C4        1.0  0.50986  0.65833  0.58986  1.0000
  C   C5        1.0  0.26897  0.64085  0.47851  1.0000
  C   C6        1.0  0.73103  0.35915  0.52150  1.0000
  C   C7        1.0  0.97469  0.44288  0.22611  1.0000
  C   C8        1.0  0.02531  0.55712  0.77389  1.0000
  C   C9        1.0  0.69113  0.63743  0.19042  1.0000
  C   C10       1.0  0.30886  0.36257  0.80959  1.0000
  C   C11       1.0  0.70173  0.87696  0.29611  1.0000
  C   C12       1.0  0.29826  0.12304  0.70389  1.0000
  C   C13       1.0  0.56076  0.78707  0.19818  1.0000
  C   C14       1.0  0.43924  0.21292  0.80182  1.0000
  C   C15       1.0  0.83473  0.60676  0.23644  1.0000
  C   C16       1.0  0.16526  0.39323  0.76357  1.0000
  C   C17       1.0  0.83892  0.73080  0.28968  1.0000
  C   C18       1.0  0.16108  0.26919  0.71032  1.0000
  C   C19       1.0  0.85328  0.23449  0.98793  1.0000
  C   C20       1.0  0.14674  0.76552  0.01206  1.0000
  N   N1        1.0  0.11596  0.40961  0.28494  1.0000
  N   N2        1.0  0.88404  0.59039  0.71506  1.0000
  N   N3        1.0  0.56468  0.90531  0.25110  1.0000
  N   N4        1.0  0.43532  0.09468  0.74890  1.0000
  N   N5        1.0  0.48153  0.25040  0.35581  1.0000
  N   N6        1.0  0.51847  0.74960  0.64419  1.0000
  N   N7        1.0  0.13087  0.72575  0.46832  1.0000
  N   N8        1.0  0.86915  0.27425  0.53168  1.0000
  N   N9        1.0  0.18475  0.06074  0.17505  1.0000
  N   N10       1.0  0.81525  0.93926  0.82496  1.0000
  N   N11       1.0  0.76288  0.37310  0.98092  1.0000
  N   N12       1.0  0.23712  0.62690  0.01908  1.0000
  O   O1        1.0  0.44003  0.29605  0.06497  1.0000
  O   O2        1.0  0.55997  0.70395  0.93503  1.0000
  O   O3        1.0  0.19261  0.04318  0.47293  1.0000
  O   O4        1.0  0.80738  0.95683  0.52707  1.0000
