data_image0
_chemical_formula_structural       NiH34C24N6O4
_chemical_formula_sum              "Ni1 H34 C24 N6 O4"
_cell_length_a       9.04053
_cell_length_b       9.52527
_cell_length_c       9.72015
_cell_angle_alpha    124.486
_cell_angle_beta     96.9304
_cell_angle_gamma    109.759

_space_group_name_H-M_alt    "P 1"
_space_group_IT_number       1

loop_
  _space_group_symop_operation_xyz
  'x, y, z'

loop_
  _atom_site_type_symbol
  _atom_site_label
  _atom_site_symmetry_multiplicity
  _atom_site_fract_x
  _atom_site_fract_y
  _atom_site_fract_z
  _atom_site_occupancy
  Ni  Ni1       1.0  1.00000  1.00000  0.49999  1.0000
  H   H1        1.0  0.90873  0.99320  0.85619  1.0000
  H   H2        1.0  0.09128  0.00681  0.14382  1.0000
  H   H3        1.0  0.72831  0.02014  0.89595  1.0000
  H   H4        1.0  0.27170  0.97988  0.10406  1.0000
  H   H5        1.0  0.93871  0.21379  0.05728  1.0000
  H   H6        1.0  0.06130  0.78624  0.94272  1.0000
  H   H7        1.0  0.72268  0.12868  0.59583  1.0000
  H   H8        1.0  0.27732  0.87130  0.40414  1.0000
  H   H9        1.0  0.60166  0.98035  0.64324  1.0000
  H   H10       1.0  0.39833  0.01963  0.35672  1.0000
  H   H11       1.0  0.99091  0.61337  0.19145  1.0000
  H   H12       1.0  0.00907  0.38660  0.80850  1.0000
  H   H13       1.0  0.90435  0.57280  0.98955  1.0000
  H   H14       1.0  0.09564  0.42718  0.01042  1.0000
  H   H15       1.0  0.61561  0.84577  0.28542  1.0000
  H   H16       1.0  0.38439  0.15420  0.71454  1.0000
  H   H17       1.0  0.51001  0.65647  0.29273  1.0000
  H   H18       1.0  0.48999  0.34350  0.70724  1.0000
  H   H19       1.0  0.73515  0.55602  0.22494  1.0000
  H   H20       1.0  0.26485  0.44397  0.77504  1.0000
  H   H21       1.0  0.62121  0.53671  0.04740  1.0000
  H   H22       1.0  0.37879  0.46327  0.95257  1.0000
  H   H23       1.0  0.90552  0.47419  0.68687  1.0000
  H   H24       1.0  0.09448  0.52584  0.31318  1.0000
  H   H25       1.0  0.72589  0.63005  0.76128  1.0000
  H   H26       1.0  0.27413  0.37000  0.23876  1.0000
  H   H27       1.0  0.62181  0.12825  0.11780  1.0000
  H   H28       1.0  0.37823  0.87179  0.88225  1.0000
  H   H29       1.0  0.43847  0.27861  0.18433  1.0000
  H   H30       1.0  0.56154  0.72139  0.81569  1.0000
  H   H31       1.0  0.76650  0.81058  0.54225  1.0000
  H   H32       1.0  0.23349  0.18939  0.45771  1.0000
  H   H33       1.0  0.85638  0.85249  0.18028  1.0000
  H   H34       1.0  0.14362  0.14752  0.81973  1.0000
  C   C1        1.0  0.85854  0.09655  0.91081  1.0000
  C   C2        1.0  0.14146  0.90346  0.08919  1.0000
  C   C3        1.0  0.72727  0.04729  0.64156  1.0000
  C   C4        1.0  0.27273  0.95268  0.35841  1.0000
  C   C5        1.0  0.97692  0.68627  0.13895  1.0000
  C   C6        1.0  0.02307  0.31371  0.86101  1.0000
  C   C7        1.0  0.63569  0.75649  0.31529  1.0000
  C   C8        1.0  0.36431  0.24349  0.68468  1.0000
  C   C9        1.0  0.71156  0.64133  0.19145  1.0000
  C   C10       1.0  0.28844  0.35865  0.80853  1.0000
  C   C11       1.0  0.85971  0.16431  0.35045  1.0000
  C   C12       1.0  0.14029  0.83570  0.64960  1.0000
  C   C13       1.0  0.77054  0.28413  0.39708  1.0000
  C   C14       1.0  0.22947  0.71590  0.60297  1.0000
  C   C15       1.0  0.80095  0.43105  0.57796  1.0000
  C   C16       1.0  0.19905  0.56898  0.42209  1.0000
  C   C17       1.0  0.69828  0.51763  0.61847  1.0000
  C   C18       1.0  0.30172  0.48240  0.38157  1.0000
  C   C19       1.0  0.55969  0.46066  0.47913  1.0000
  C   C20       1.0  0.44031  0.53936  0.52090  1.0000
  C   C21       1.0  0.53942  0.32424  0.29805  1.0000
  C   C22       1.0  0.46059  0.67577  0.70198  1.0000
  C   C23       1.0  0.64238  0.23796  0.25845  1.0000
  C   C24       1.0  0.35764  0.76206  0.74159  1.0000
  N   N1        1.0  0.85614  0.18090  0.82425  1.0000
  N   N2        1.0  0.14385  0.81908  0.17572  1.0000
  N   N3        1.0  0.76051  0.89111  0.50556  1.0000
  N   N4        1.0  0.23948  0.10886  0.49441  1.0000
  N   N5        1.0  0.87660  0.77965  0.22345  1.0000
  N   N6        1.0  0.12340  0.22033  0.77653  1.0000
  O   O1        1.0  0.96519  0.20639  0.48622  1.0000
  O   O2        1.0  0.03480  0.79360  0.51382  1.0000
  O   O3        1.0  0.81702  0.02554  0.18355  1.0000
  O   O4        1.0  0.18297  0.97447  0.81649  1.0000
