data_image0
_chemical_formula_structural       Zn4H22C36S2N8O16
_chemical_formula_sum              "Zn4 H22 C36 S2 N8 O16"
_cell_length_a       7.7474
_cell_length_b       11.069
_cell_length_c       11.2711
_cell_angle_alpha    82.4261
_cell_angle_beta     80.4453
_cell_angle_gamma    79.0099

_space_group_name_H-M_alt    "P 1"
_space_group_IT_number       1

loop_
  _space_group_symop_operation_xyz
  'x, y, z'

loop_
  _atom_site_type_symbol
  _atom_site_label
  _atom_site_symmetry_multiplicity
  _atom_site_fract_x
  _atom_site_fract_y
  _atom_site_fract_z
  _atom_site_occupancy
  Zn  Zn1       1.0  0.78501  0.80578  0.46477  1.0000
  Zn  Zn2       1.0  0.21499  0.19421  0.53524  1.0000
  Zn  Zn3       1.0  0.14196  0.74712  0.54131  1.0000
  Zn  Zn4       1.0  0.85803  0.25289  0.45869  1.0000
  H   H1        1.0  0.32732  0.88659  0.62204  1.0000
  H   H2        1.0  0.67268  0.11341  0.37796  1.0000
  H   H3        1.0  0.41526  0.85814  0.48464  1.0000
  H   H4        1.0  0.58472  0.14186  0.51535  1.0000
  H   H5        1.0  0.40945  0.81142  0.94764  1.0000
  H   H6        1.0  0.59056  0.18858  0.05235  1.0000
  H   H7        1.0  0.08437  0.87824  0.01426  1.0000
  H   H8        1.0  0.91564  0.12177  0.98572  1.0000
  H   H9        1.0  0.98801  0.99649  0.19530  1.0000
  H   H10       1.0  0.01199  0.00352  0.80469  1.0000
  H   H11       1.0  0.44250  0.24836  0.26762  1.0000
  H   H12       1.0  0.55754  0.75164  0.73240  1.0000
  H   H13       1.0  0.59118  0.36988  0.09152  1.0000
  H   H14       1.0  0.40886  0.63011  0.90850  1.0000
  H   H15       1.0  0.60110  0.58989  0.09192  1.0000
  H   H16       1.0  0.39891  0.41011  0.90807  1.0000
  H   H17       1.0  0.45623  0.70262  0.27396  1.0000
  H   H18       1.0  0.54375  0.29738  0.72603  1.0000
  H   H19       1.0  0.02237  0.30803  0.72624  1.0000
  H   H20       1.0  0.97765  0.69196  0.27375  1.0000
  H   H21       1.0  0.94652  0.69674  0.84168  1.0000
  H   H22       1.0  0.05348  0.30326  0.15833  1.0000
  C   C1        1.0  0.36177  0.85644  0.02968  1.0000
  C   C2        1.0  0.63824  0.14356  0.97032  1.0000
  C   C3        1.0  0.18223  0.89655  0.06540  1.0000
  C   C4        1.0  0.81778  0.10344  0.93460  1.0000
  C   C5        1.0  0.12823  0.96261  0.16605  1.0000
  C   C6        1.0  0.87178  0.03739  0.83395  1.0000
  C   C7        1.0  0.25247  0.98926  0.23193  1.0000
  C   C8        1.0  0.74753  0.01075  0.76806  1.0000
  C   C9        1.0  0.18268  0.07271  0.33092  1.0000
  C   C10       1.0  0.81732  0.92730  0.66907  1.0000
  C   C11       1.0  0.43486  0.94283  0.20197  1.0000
  C   C12       1.0  0.56514  0.05719  0.79802  1.0000
  C   C13       1.0  0.48486  0.87739  0.09906  1.0000
  C   C14       1.0  0.51514  0.12261  0.90093  1.0000
  C   C15       1.0  0.56974  0.95679  0.28063  1.0000
  C   C16       1.0  0.43025  0.04320  0.71936  1.0000
  C   C17       1.0  0.44150  0.34654  0.26894  1.0000
  C   C18       1.0  0.55851  0.65347  0.73106  1.0000
  C   C19       1.0  0.52560  0.41546  0.17111  1.0000
  C   C20       1.0  0.47442  0.58454  0.82890  1.0000
  C   C21       1.0  0.53138  0.54259  0.17114  1.0000
  C   C22       1.0  0.46864  0.45740  0.82886  1.0000
  C   C23       1.0  0.45156  0.60574  0.26974  1.0000
  C   C24       1.0  0.54842  0.39427  0.73027  1.0000
  C   C25       1.0  0.36349  0.53824  0.36849  1.0000
  C   C26       1.0  0.63649  0.46177  0.63151  1.0000
  C   C27       1.0  0.35993  0.40916  0.36859  1.0000
  C   C28       1.0  0.64005  0.59085  0.63139  1.0000
  C   C29       1.0  0.21448  0.47224  0.53713  1.0000
  C   C30       1.0  0.78552  0.52776  0.46288  1.0000
  C   C31       1.0  0.10839  0.48755  0.65369  1.0000
  C   C32       1.0  0.89163  0.51245  0.34630  1.0000
  C   C33       1.0  0.02990  0.40343  0.73759  1.0000
  C   C34       1.0  0.97011  0.59656  0.26242  1.0000
  C   C35       1.0  0.98697  0.61251  0.79697  1.0000
  C   C36       1.0  0.01300  0.38748  0.20303  1.0000
  S   S1        1.0  0.92716  0.47377  0.86246  1.0000
  S   S2        1.0  0.07286  0.52619  0.13755  1.0000
  N   N1        1.0  0.67083  0.82598  0.06087  1.0000
  N   N2        1.0  0.32916  0.17402  0.93912  1.0000
  N   N3        1.0  0.26590  0.36962  0.47824  1.0000
  N   N4        1.0  0.73411  0.63037  0.52176  1.0000
  N   N5        1.0  0.27386  0.57560  0.47507  1.0000
  N   N6        1.0  0.72613  0.42439  0.52493  1.0000
  N   N7        1.0  0.07892  0.60634  0.68881  1.0000
  N   N8        1.0  0.92106  0.39366  0.31120  1.0000
  O   O1        1.0  0.02386  0.12753  0.33496  1.0000
  O   O2        1.0  0.97612  0.87245  0.66505  1.0000
  O   O3        1.0  0.29255  0.08510  0.40031  1.0000
  O   O4        1.0  0.70744  0.91490  0.59968  1.0000
  O   O5        1.0  0.65045  0.04608  0.25921  1.0000
  O   O6        1.0  0.34956  0.95392  0.74079  1.0000
  O   O7        1.0  0.58568  0.86746  0.36681  1.0000
  O   O8        1.0  0.41430  0.13256  0.63319  1.0000
  O   O9        1.0  0.70813  0.77247  0.96666  1.0000
  O   O10       1.0  0.29186  0.22754  0.03334  1.0000
  O   O11       1.0  0.78392  0.83558  0.12360  1.0000
  O   O12       1.0  0.21608  0.16442  0.87640  1.0000
  O   O13       1.0  0.02673  0.79168  0.39962  1.0000
  O   O14       1.0  0.97327  0.20831  0.60038  1.0000
  O   O15       1.0  0.34228  0.82777  0.55928  1.0000
  O   O16       1.0  0.65770  0.17224  0.44071  1.0000
