data_image0
_chemical_formula_structural       Cu4H32C36S4N12O12
_chemical_formula_sum              "Cu4 H32 C36 S4 N12 O12"
_cell_length_a       9.30269
_cell_length_b       10.5168
_cell_length_c       12.3659
_cell_angle_alpha    85.0079
_cell_angle_beta     78.6154
_cell_angle_gamma    63.7457

_space_group_name_H-M_alt    "P 1"
_space_group_IT_number       1

loop_
  _space_group_symop_operation_xyz
  'x, y, z'

loop_
  _atom_site_type_symbol
  _atom_site_label
  _atom_site_symmetry_multiplicity
  _atom_site_fract_x
  _atom_site_fract_y
  _atom_site_fract_z
  _atom_site_occupancy
  Cu  Cu1       1.0  0.36653  0.16199  0.52725  1.0000
  Cu  Cu2       1.0  0.47140  0.16201  0.97280  1.0000
  Cu  Cu3       1.0  0.63347  0.83801  0.47276  1.0000
  Cu  Cu4       1.0  0.52861  0.83799  0.02720  1.0000
  H   H1        1.0  0.20043  0.14738  0.75426  1.0000
  H   H2        1.0  0.65198  0.14732  0.74576  1.0000
  H   H3        1.0  0.79957  0.85262  0.24574  1.0000
  H   H4        1.0  0.34802  0.85268  0.25424  1.0000
  H   H5        1.0  0.31944  0.70056  0.80422  1.0000
  H   H6        1.0  0.98036  0.70060  0.69578  1.0000
  H   H7        1.0  0.68056  0.29943  0.19578  1.0000
  H   H8        1.0  0.01964  0.29940  0.30422  1.0000
  H   H9        1.0  0.51465  0.66158  0.62893  1.0000
  H   H10       1.0  0.82406  0.66160  0.87099  1.0000
  H   H11       1.0  0.48535  0.33842  0.37108  1.0000
  H   H12       1.0  0.17593  0.33840  0.12901  1.0000
  H   H13       1.0  0.12919  0.16176  0.93286  1.0000
  H   H14       1.0  0.70904  0.16180  0.56730  1.0000
  H   H15       1.0  0.87081  0.83823  0.06714  1.0000
  H   H16       1.0  0.29096  0.83820  0.43270  1.0000
  H   H17       1.0  0.07509  0.77939  0.89880  1.0000
  H   H18       1.0  0.14566  0.77943  0.60110  1.0000
  H   H19       1.0  0.92491  0.22061  0.10120  1.0000
  H   H20       1.0  0.85434  0.22057  0.39890  1.0000
  H   H21       1.0  0.77365  0.37723  0.65164  1.0000
  H   H22       1.0  0.84920  0.37712  0.84831  1.0000
  H   H23       1.0  0.22635  0.62276  0.34836  1.0000
  H   H24       1.0  0.15080  0.62288  0.15168  1.0000
  H   H25       1.0  0.77383  0.47685  0.52810  1.0000
  H   H26       1.0  0.74931  0.47672  0.97191  1.0000
  H   H27       1.0  0.22617  0.52315  0.47190  1.0000
  H   H28       1.0  0.25069  0.52328  0.02810  1.0000
  H   H29       1.0  0.82166  0.52477  0.64881  1.0000
  H   H30       1.0  0.65362  0.52468  0.85119  1.0000
  H   H31       1.0  0.17834  0.47524  0.35119  1.0000
  H   H32       1.0  0.34637  0.47533  0.14881  1.0000
  C   C1        1.0  0.26808  0.03513  0.73340  1.0000
  C   C2        1.0  0.69668  0.03509  0.76660  1.0000
  C   C3        1.0  0.73192  0.96487  0.26660  1.0000
  C   C4        1.0  0.30332  0.96491  0.23340  1.0000
  C   C5        1.0  0.23932  0.93014  0.80015  1.0000
  C   C6        1.0  0.83064  0.93015  0.69987  1.0000
  C   C7        1.0  0.76068  0.06986  0.19985  1.0000
  C   C8        1.0  0.16936  0.06985  0.30013  1.0000
  C   C9        1.0  0.33129  0.79111  0.76086  1.0000
  C   C10       1.0  0.87787  0.79114  0.73912  1.0000
  C   C11       1.0  0.66871  0.20889  0.23914  1.0000
  C   C12       1.0  0.12213  0.20886  0.26088  1.0000
  C   C13       1.0  0.44234  0.76784  0.66296  1.0000
  C   C14       1.0  0.79004  0.76785  0.83697  1.0000
  C   C15       1.0  0.55766  0.23216  0.33704  1.0000
  C   C16       1.0  0.20996  0.23215  0.16303  1.0000
  C   C17       1.0  0.11718  0.96649  0.90190  1.0000
  C   C18       1.0  0.91641  0.96653  0.59814  1.0000
  C   C19       1.0  0.88282  0.03351  0.09810  1.0000
  C   C20       1.0  0.08358  0.03347  0.40187  1.0000
  C   C21       1.0  0.07159  0.09120  0.96075  1.0000
  C   C22       1.0  0.83721  0.09123  0.53935  1.0000
  C   C23       1.0  0.92841  0.90879  0.03925  1.0000
  C   C24       1.0  0.16278  0.90877  0.46066  1.0000
  C   C25       1.0  0.04358  0.87619  0.94278  1.0000
  C   C26       1.0  0.08031  0.87622  0.55717  1.0000
  C   C27       1.0  0.95641  0.12381  0.05722  1.0000
  C   C28       1.0  0.91968  0.12378  0.44283  1.0000
  C   C29       1.0  0.00350  0.34794  0.56446  1.0000
  C   C30       1.0  0.64859  0.34785  0.93541  1.0000
  C   C31       1.0  0.99651  0.65206  0.43553  1.0000
  C   C32       1.0  0.35141  0.65215  0.06459  1.0000
  C   C33       1.0  0.83358  0.43687  0.60049  1.0000
  C   C34       1.0  0.72959  0.43675  0.89947  1.0000
  C   C35       1.0  0.16643  0.56313  0.39951  1.0000
  C   C36       1.0  0.27041  0.56325  0.10053  1.0000
  S   S1        1.0  0.38335  0.42169  0.68016  1.0000
  S   S2        1.0  0.19491  0.42166  0.81982  1.0000
  S   S3        1.0  0.61664  0.57831  0.31985  1.0000
  S   S4        1.0  0.80509  0.57834  0.18018  1.0000
  N   N1        1.0  0.37594  0.00783  0.63926  1.0000
  N   N2        1.0  0.61615  0.00779  0.86073  1.0000
  N   N3        1.0  0.62407  0.99217  0.36074  1.0000
  N   N4        1.0  0.38385  0.99221  0.13928  1.0000
  N   N5        1.0  0.46712  0.87226  0.60395  1.0000
  N   N6        1.0  0.66071  0.87223  0.89601  1.0000
  N   N7        1.0  0.53289  0.12774  0.39605  1.0000
  N   N8        1.0  0.33929  0.12778  0.10400  1.0000
  N   N9        1.0  0.14161  0.27680  0.53525  1.0000
  N   N10       1.0  0.58157  0.27678  0.96469  1.0000
  N   N11       1.0  0.85838  0.72321  0.46475  1.0000
  N   N12       1.0  0.41843  0.72322  0.03531  1.0000
  O   O1        1.0  0.44228  0.28556  0.62237  1.0000
  O   O2        1.0  0.27219  0.28556  0.87754  1.0000
  O   O3        1.0  0.55773  0.71444  0.37764  1.0000
  O   O4        1.0  0.72781  0.71444  0.12246  1.0000
  O   O5        1.0  0.29533  0.54711  0.61648  1.0000
  O   O6        1.0  0.15739  0.54708  0.88359  1.0000
  O   O7        1.0  0.70467  0.45289  0.38352  1.0000
  O   O8        1.0  0.84261  0.45292  0.11641  1.0000
  O   O9        1.0  0.50947  0.43010  0.72990  1.0000
  O   O10       1.0  0.06047  0.43001  0.77002  1.0000
  O   O11       1.0  0.49053  0.56991  0.27010  1.0000
  O   O12       1.0  0.93953  0.56999  0.22998  1.0000
