data_image0
_chemical_formula_structural       Ag2H20C34N8O4F10
_chemical_formula_sum              "Ag2 H20 C34 N8 O4 F10"
_cell_length_a       5.33651
_cell_length_b       10.4668
_cell_length_c       15.5833
_cell_angle_alpha    74.2365
_cell_angle_beta     86.0124
_cell_angle_gamma    84.7317

_space_group_name_H-M_alt    "P 1"
_space_group_IT_number       1

loop_
  _space_group_symop_operation_xyz
  'x, y, z'

loop_
  _atom_site_type_symbol
  _atom_site_label
  _atom_site_symmetry_multiplicity
  _atom_site_fract_x
  _atom_site_fract_y
  _atom_site_fract_z
  _atom_site_occupancy
  Ag  Ag1       1.0  0.18060  0.03799  0.39074  1.0000
  Ag  Ag2       1.0  0.81942  0.96200  0.60927  1.0000
  H   H1        1.0  0.65046  0.84412  0.44244  1.0000
  H   H2        1.0  0.34958  0.15585  0.55755  1.0000
  H   H3        1.0  0.40190  0.50962  0.65237  1.0000
  H   H4        1.0  0.59810  0.49037  0.34763  1.0000
  H   H5        1.0  0.04097  0.66792  0.67971  1.0000
  H   H6        1.0  0.95905  0.33209  0.32029  1.0000
  H   H7        1.0  0.76569  0.42580  0.64534  1.0000
  H   H8        1.0  0.23433  0.57418  0.35467  1.0000
  H   H9        1.0  0.86717  0.71162  0.38927  1.0000
  H   H10       1.0  0.13287  0.28837  0.61075  1.0000
  H   H11       1.0  0.69010  0.01050  0.27493  1.0000
  H   H12       1.0  0.30991  0.98952  0.72507  1.0000
  H   H13       1.0  0.96718  0.14450  0.15800  1.0000
  H   H14       1.0  0.03282  0.85552  0.84200  1.0000
  H   H15       1.0  0.38194  0.46513  0.14145  1.0000
  H   H16       1.0  0.61801  0.53486  0.85854  1.0000
  H   H17       1.0  0.08523  0.25575  0.02563  1.0000
  H   H18       1.0  0.91477  0.74426  0.97436  1.0000
  H   H19       1.0  0.66832  0.59471  0.08941  1.0000
  H   H20       1.0  0.33167  0.40530  0.91058  1.0000
  C   C1        1.0  0.52241  0.79570  0.49627  1.0000
  C   C2        1.0  0.47763  0.20429  0.50373  1.0000
  C   C3        1.0  0.56843  0.66113  0.54393  1.0000
  C   C4        1.0  0.43161  0.33886  0.45608  1.0000
  C   C5        1.0  0.38940  0.61259  0.61194  1.0000
  C   C6        1.0  0.61063  0.38740  0.38807  1.0000
  C   C7        1.0  0.18582  0.69849  0.62671  1.0000
  C   C8        1.0  0.81420  0.30151  0.37329  1.0000
  C   C9        1.0  0.86690  0.45824  0.58116  1.0000
  C   C10       1.0  0.13311  0.54174  0.41885  1.0000
  C   C11       1.0  0.78885  0.57975  0.52110  1.0000
  C   C12       1.0  0.21118  0.42024  0.47890  1.0000
  C   C13       1.0  0.92601  0.62056  0.43902  1.0000
  C   C14       1.0  0.07401  0.37943  0.56098  1.0000
  C   C15       1.0  0.63435  0.11450  0.24313  1.0000
  C   C16       1.0  0.36567  0.88551  0.75688  1.0000
  C   C17       1.0  0.78737  0.19047  0.17605  1.0000
  C   C18       1.0  0.21262  0.80955  0.82395  1.0000
  C   C19       1.0  0.70607  0.32264  0.13664  1.0000
  C   C20       1.0  0.29391  0.67737  0.86335  1.0000
  C   C21       1.0  0.46797  0.36512  0.16918  1.0000
  C   C22       1.0  0.53201  0.63488  0.83081  1.0000
  C   C23       1.0  0.04761  0.36271  0.01564  1.0000
  C   C24       1.0  0.95237  0.63730  0.98435  1.0000
  C   C25       1.0  0.85511  0.41278  0.06680  1.0000
  C   C26       1.0  0.14485  0.58722  0.93319  1.0000
  C   C27       1.0  0.81103  0.55190  0.04982  1.0000
  C   C28       1.0  0.18895  0.44810  0.95016  1.0000
  C   C29       1.0  0.27961  0.83513  0.27260  1.0000
  C   C30       1.0  0.72045  0.16484  0.72741  1.0000
  C   C31       1.0  0.25264  0.77677  0.19105  1.0000
  C   C32       1.0  0.74733  0.22323  0.80895  1.0000
  C   C33       1.0  0.32868  0.87450  0.10078  1.0000
  C   C34       1.0  0.67125  0.12553  0.89923  1.0000
  N   N1        1.0  0.31768  0.87208  0.51023  1.0000
  N   N2        1.0  0.68236  0.12791  0.48977  1.0000
  N   N3        1.0  0.14924  0.82436  0.57668  1.0000
  N   N4        1.0  0.85079  0.17563  0.42332  1.0000
  N   N5        1.0  0.41538  0.16425  0.27303  1.0000
  N   N6        1.0  0.58462  0.83575  0.72697  1.0000
  N   N7        1.0  0.33043  0.29023  0.23522  1.0000
  N   N8        1.0  0.66956  0.70977  0.76478  1.0000
  O   O1        1.0  0.09385  0.91321  0.28532  1.0000
  O   O2        1.0  0.90620  0.08677  0.71471  1.0000
  O   O3        1.0  0.48017  0.80008  0.31191  1.0000
  O   O4        1.0  0.51989  0.19990  0.68807  1.0000
  F   F1        1.0  0.01248  0.74359  0.18538  1.0000
  F   F2        1.0  0.98748  0.25643  0.81463  1.0000
  F   F3        1.0  0.40880  0.66100  0.19825  1.0000
  F   F4        1.0  0.59115  0.33900  0.80172  1.0000
  F   F5        1.0  0.55746  0.91847  0.10461  1.0000
  F   F6        1.0  0.44256  0.08148  0.89539  1.0000
  F   F7        1.0  0.15839  0.98148  0.08018  1.0000
  F   F8        1.0  0.84160  0.01859  0.91988  1.0000
  F   F9        1.0  0.34184  0.81503  0.03269  1.0000
  F   F10       1.0  0.65795  0.18504  0.96731  1.0000
