data_image0
_chemical_formula_structural       Ag2H20C28N10O6
_chemical_formula_sum              "Ag2 H20 C28 N10 O6"
_cell_length_a       7.9507
_cell_length_b       8.84847
_cell_length_c       11.5044
_cell_angle_alpha    90.7815
_cell_angle_beta     91.3699
_cell_angle_gamma    76.0751

_space_group_name_H-M_alt    "P 1"
_space_group_IT_number       1

loop_
  _space_group_symop_operation_xyz
  'x, y, z'

loop_
  _atom_site_type_symbol
  _atom_site_label
  _atom_site_symmetry_multiplicity
  _atom_site_fract_x
  _atom_site_fract_y
  _atom_site_fract_z
  _atom_site_occupancy
  Ag  Ag1       1.0  0.10047  0.28414  0.95970  1.0000
  Ag  Ag2       1.0  0.89953  0.71585  0.04030  1.0000
  H   H1        1.0  0.96626  0.87789  0.81477  1.0000
  H   H2        1.0  0.03377  0.12210  0.18522  1.0000
  H   H3        1.0  0.15278  0.82938  0.64278  1.0000
  H   H4        1.0  0.84722  0.17060  0.35721  1.0000
  H   H5        1.0  0.30114  0.34933  0.75791  1.0000
  H   H6        1.0  0.69886  0.65066  0.24209  1.0000
  H   H7        1.0  0.53869  0.33979  0.67840  1.0000
  H   H8        1.0  0.46131  0.66020  0.32160  1.0000
  H   H9        1.0  0.25031  0.72922  0.47525  1.0000
  H   H10       1.0  0.74970  0.27076  0.52475  1.0000
  H   H11       1.0  0.63651  0.01921  0.71371  1.0000
  H   H12       1.0  0.36350  0.98079  0.28629  1.0000
  H   H13       1.0  0.68203  0.74668  0.78381  1.0000
  H   H14       1.0  0.31797  0.25333  0.21621  1.0000
  H   H15       1.0  0.23452  0.92457  0.99684  1.0000
  H   H16       1.0  0.76547  0.07545  0.00317  1.0000
  H   H17       1.0  0.67312  0.52613  0.82827  1.0000
  H   H18       1.0  0.32687  0.47388  0.17173  1.0000
  H   H19       1.0  0.29662  0.72706  0.08805  1.0000
  H   H20       1.0  0.70337  0.27295  0.91196  1.0000
  C   C1        1.0  0.04368  0.76083  0.79602  1.0000
  C   C2        1.0  0.95635  0.23916  0.20398  1.0000
  C   C3        1.0  0.15061  0.73278  0.70000  1.0000
  C   C4        1.0  0.84941  0.26720  0.30000  1.0000
  C   C5        1.0  0.25364  0.58299  0.68330  1.0000
  C   C6        1.0  0.74637  0.41699  0.31670  1.0000
  C   C7        1.0  0.23182  0.47156  0.76469  1.0000
  C   C8        1.0  0.76818  0.52842  0.23530  1.0000
  C   C9        1.0  0.37871  0.54027  0.58960  1.0000
  C   C10       1.0  0.62129  0.45971  0.41039  1.0000
  C   C11       1.0  0.51969  0.40949  0.59971  1.0000
  C   C12       1.0  0.48031  0.59050  0.40029  1.0000
  C   C13       1.0  0.36080  0.63027  0.48828  1.0000
  C   C14       1.0  0.63920  0.36971  0.51172  1.0000
  C   C15       1.0  0.54980  0.98879  0.77693  1.0000
  C   C16       1.0  0.45021  0.01121  0.22307  1.0000
  C   C17       1.0  0.57467  0.83660  0.81661  1.0000
  C   C18       1.0  0.42533  0.16341  0.18339  1.0000
  C   C19       1.0  0.46301  0.80485  0.89978  1.0000
  C   C20       1.0  0.53698  0.19516  0.10022  1.0000
  C   C21       1.0  0.33144  0.93456  0.93391  1.0000
  C   C22       1.0  0.66856  0.06546  0.06609  1.0000
  C   C23       1.0  0.48184  0.64967  0.95075  1.0000
  C   C24       1.0  0.51815  0.35035  0.04926  1.0000
  C   C25       1.0  0.59617  0.51754  0.90386  1.0000
  C   C26       1.0  0.40382  0.48247  0.09615  1.0000
  C   C27       1.0  0.38667  0.62878  0.04829  1.0000
  C   C28       1.0  0.61332  0.37123  0.95171  1.0000
  N   N1        1.0  0.12767  0.50413  0.85517  1.0000
  N   N2        1.0  0.87234  0.49586  0.14483  1.0000
  N   N3        1.0  0.03469  0.65047  0.87284  1.0000
  N   N4        1.0  0.96533  0.34953  0.12715  1.0000
  N   N5        1.0  0.31621  0.07868  0.89421  1.0000
  N   N6        1.0  0.68380  0.92134  0.10578  1.0000
  N   N7        1.0  0.42523  0.10785  0.81531  1.0000
  N   N8        1.0  0.57478  0.89216  0.18469  1.0000
  N   N9        1.0  0.91336  0.16918  0.73878  1.0000
  N   N10       1.0  0.08663  0.83082  0.26123  1.0000
  O   O1        1.0  0.92512  0.11722  0.84421  1.0000
  O   O2        1.0  0.07488  0.88278  0.15579  1.0000
  O   O3        1.0  0.88449  0.08190  0.65660  1.0000
  O   O4        1.0  0.11551  0.91811  0.34340  1.0000
  O   O5        1.0  0.93011  0.30456  0.72117  1.0000
  O   O6        1.0  0.06987  0.69545  0.27883  1.0000
