data_image0
_chemical_formula_structural       Gd2H16C12S2N2O18
_chemical_formula_sum              "Gd2 H16 C12 S2 N2 O18"
_cell_length_a       6.8276
_cell_length_b       8.72354
_cell_length_c       9.8571
_cell_angle_alpha    94.7005
_cell_angle_beta     103.175
_cell_angle_gamma    98.1124

_space_group_name_H-M_alt    "P 1"
_space_group_IT_number       1

loop_
  _space_group_symop_operation_xyz
  'x, y, z'

loop_
  _atom_site_type_symbol
  _atom_site_label
  _atom_site_symmetry_multiplicity
  _atom_site_fract_x
  _atom_site_fract_y
  _atom_site_fract_z
  _atom_site_occupancy
  Gd  Gd1       1.0  0.20114  0.38456  0.90351  1.0000
  Gd  Gd2       1.0  0.79886  0.61544  0.09649  1.0000
  H   H1        1.0  0.86916  0.34622  0.62295  1.0000
  H   H2        1.0  0.13084  0.65378  0.37705  1.0000
  H   H3        1.0  0.73363  0.24584  0.36888  1.0000
  H   H4        1.0  0.26637  0.75416  0.63112  1.0000
  H   H5        1.0  0.35031  0.19878  0.27241  1.0000
  H   H6        1.0  0.64969  0.80122  0.72759  1.0000
  H   H7        1.0  0.87843  0.11589  0.86523  1.0000
  H   H8        1.0  0.12157  0.88411  0.13477  1.0000
  H   H9        1.0  0.00914  0.04480  0.77005  1.0000
  H   H10       1.0  0.99086  0.95520  0.22995  1.0000
  H   H11       1.0  0.31711  0.07470  0.95010  1.0000
  H   H12       1.0  0.68289  0.92530  0.04990  1.0000
  H   H13       1.0  0.53447  0.17090  0.96343  1.0000
  H   H14       1.0  0.46553  0.82910  0.03657  1.0000
  H   H15       1.0  0.14331  0.23850  0.41840  1.0000
  H   H16       1.0  0.85669  0.76150  0.58160  1.0000
  C   C1        1.0  0.35852  0.32225  0.60643  1.0000
  C   C2        1.0  0.64148  0.67775  0.39357  1.0000
  C   C3        1.0  0.57578  0.35221  0.66401  1.0000
  C   C4        1.0  0.42422  0.64779  0.33599  1.0000
  C   C5        1.0  0.70538  0.32317  0.57801  1.0000
  C   C6        1.0  0.29462  0.67683  0.42199  1.0000
  C   C7        1.0  0.63198  0.26692  0.43583  1.0000
  C   C8        1.0  0.36802  0.73308  0.56417  1.0000
  C   C9        1.0  0.42441  0.23898  0.38202  1.0000
  C   C10       1.0  0.57559  0.76102  0.61798  1.0000
  C   C11       1.0  0.66557  0.41746  0.81187  1.0000
  C   C12       1.0  0.33443  0.58254  0.18813  1.0000
  S   S1        1.0  0.90692  0.22051  0.13244  1.0000
  S   S2        1.0  0.09308  0.77949  0.86756  1.0000
  N   N1        1.0  0.29756  0.26572  0.46535  1.0000
  N   N2        1.0  0.70244  0.73428  0.53465  1.0000
  O   O1        1.0  0.21976  0.34021  0.66990  1.0000
  O   O2        1.0  0.78024  0.65979  0.33010  1.0000
  O   O3        1.0  0.55374  0.47494  0.88518  1.0000
  O   O4        1.0  0.44626  0.52506  0.11482  1.0000
  O   O5        1.0  0.85393  0.42176  0.86694  1.0000
  O   O6        1.0  0.14607  0.57824  0.13306  1.0000
  O   O7        1.0  0.10450  0.26059  0.09397  1.0000
  O   O8        1.0  0.89550  0.73941  0.90603  1.0000
  O   O9        1.0  0.93930  0.14154  0.26182  1.0000
  O   O10       1.0  0.06070  0.85846  0.73818  1.0000
  O   O11       1.0  0.76392  0.11103  0.01334  1.0000
  O   O12       1.0  0.23608  0.88897  0.98666  1.0000
  O   O13       1.0  0.81313  0.36050  0.15697  1.0000
  O   O14       1.0  0.18687  0.63950  0.84303  1.0000
  O   O15       1.0  0.96445  0.14300  0.79957  1.0000
  O   O16       1.0  0.03555  0.85700  0.20043  1.0000
  O   O17       1.0  0.38684  0.17659  0.93317  1.0000
  O   O18       1.0  0.61316  0.82341  0.06682  1.0000
