data_image0
_chemical_formula_structural       Cu2H36C36N20
_chemical_formula_sum              "Cu2 H36 C36 N20"
_cell_length_a       8.26657
_cell_length_b       9.09483
_cell_length_c       12.7739
_cell_angle_alpha    89.9991
_cell_angle_beta     90.0014
_cell_angle_gamma    106.691

_space_group_name_H-M_alt    "P 1"
_space_group_IT_number       1

loop_
  _space_group_symop_operation_xyz
  'x, y, z'

loop_
  _atom_site_type_symbol
  _atom_site_label
  _atom_site_symmetry_multiplicity
  _atom_site_fract_x
  _atom_site_fract_y
  _atom_site_fract_z
  _atom_site_occupancy
  Cu  Cu1       1.0  1.00000  0.50000  0.50000  1.0000
  Cu  Cu2       1.0  0.99999  1.00000  0.00000  1.0000
  H   H1        1.0  0.34007  0.75482  0.43975  1.0000
  H   H2        1.0  0.34007  0.25482  0.06026  1.0000
  H   H3        1.0  0.65993  0.24518  0.56025  1.0000
  H   H4        1.0  0.65992  0.74517  0.93974  1.0000
  H   H5        1.0  0.27528  0.80378  0.56261  1.0000
  H   H6        1.0  0.27527  0.30377  0.93740  1.0000
  H   H7        1.0  0.72472  0.19621  0.43739  1.0000
  H   H8        1.0  0.72472  0.69622  0.06261  1.0000
  H   H9        1.0  0.44589  0.03017  0.38919  1.0000
  H   H10       1.0  0.44589  0.53018  0.11080  1.0000
  H   H11       1.0  0.55411  0.96982  0.61080  1.0000
  H   H12       1.0  0.55410  0.46981  0.88920  1.0000
  H   H13       1.0  0.36548  0.08615  0.50600  1.0000
  H   H14       1.0  0.36547  0.58614  0.99400  1.0000
  H   H15       1.0  0.63452  0.91385  0.49400  1.0000
  H   H16       1.0  0.63452  0.41385  0.00600  1.0000
  H   H17       1.0  0.14611  0.04343  0.36266  1.0000
  H   H18       1.0  0.14611  0.54342  0.13735  1.0000
  H   H19       1.0  0.85390  0.95656  0.63734  1.0000
  H   H20       1.0  0.85389  0.45658  0.86265  1.0000
  H   H21       1.0  0.83789  0.04621  0.25917  1.0000
  H   H22       1.0  0.83789  0.54617  0.24085  1.0000
  H   H23       1.0  0.16212  0.95380  0.74083  1.0000
  H   H24       1.0  0.16212  0.45385  0.75915  1.0000
  H   H25       1.0  0.54116  0.87701  0.23514  1.0000
  H   H26       1.0  0.54116  0.37696  0.26487  1.0000
  H   H27       1.0  0.45885  0.12299  0.76486  1.0000
  H   H28       1.0  0.45884  0.62305  0.73513  1.0000
  H   H29       1.0  0.44490  0.62424  0.31845  1.0000
  H   H30       1.0  0.44489  0.12419  0.18155  1.0000
  H   H31       1.0  0.55511  0.37577  0.68155  1.0000
  H   H32       1.0  0.55510  0.87581  0.81846  1.0000
  H   H33       1.0  0.64267  0.52201  0.42642  1.0000
  H   H34       1.0  0.64268  0.02200  0.07356  1.0000
  H   H35       1.0  0.35733  0.47800  0.57357  1.0000
  H   H36       1.0  0.35731  0.97800  0.92645  1.0000
  C   C1        1.0  0.29117  0.84039  0.47996  1.0000
  C   C2        1.0  0.29117  0.34039  0.02005  1.0000
  C   C3        1.0  0.70884  0.15960  0.52004  1.0000
  C   C4        1.0  0.70883  0.65961  0.97996  1.0000
  C   C5        1.0  0.41811  0.99866  0.47191  1.0000
  C   C6        1.0  0.41811  0.49866  0.02809  1.0000
  C   C7        1.0  0.58189  0.00133  0.52809  1.0000
  C   C8        1.0  0.58189  0.50134  0.97191  1.0000
  C   C9        1.0  0.12061  0.82553  0.43659  1.0000
  C   C10       1.0  0.12061  0.32552  0.06341  1.0000
  C   C11       1.0  0.87940  0.17447  0.56341  1.0000
  C   C12       1.0  0.87939  0.67447  0.93660  1.0000
  C   C13       1.0  0.85141  0.72669  0.39974  1.0000
  C   C14       1.0  0.85140  0.22668  0.10025  1.0000
  C   C15       1.0  0.14860  0.27331  0.60025  1.0000
  C   C16       1.0  0.14858  0.77332  0.89975  1.0000
  C   C17       1.0  0.90434  0.87479  0.35441  1.0000
  C   C18       1.0  0.90434  0.37477  0.14559  1.0000
  C   C19       1.0  0.09566  0.12521  0.64558  1.0000
  C   C20       1.0  0.09566  0.62523  0.85441  1.0000
  C   C21       1.0  0.79562  0.93290  0.29463  1.0000
  C   C22       1.0  0.79562  0.43287  0.20538  1.0000
  C   C23       1.0  0.20439  0.06710  0.70537  1.0000
  C   C24       1.0  0.20437  0.56714  0.79461  1.0000
  C   C25       1.0  0.63115  0.83808  0.28181  1.0000
  C   C26       1.0  0.63116  0.33805  0.21820  1.0000
  C   C27       1.0  0.36886  0.16192  0.71819  1.0000
  C   C28       1.0  0.36884  0.66196  0.78181  1.0000
  C   C29       1.0  0.57598  0.69220  0.32917  1.0000
  C   C30       1.0  0.57598  0.19217  0.17082  1.0000
  C   C31       1.0  0.42403  0.30780  0.67082  1.0000
  C   C32       1.0  0.42402  0.80783  0.82919  1.0000
  C   C33       1.0  0.68438  0.63492  0.38980  1.0000
  C   C34       1.0  0.68438  0.13491  0.11019  1.0000
  C   C35       1.0  0.31563  0.36509  0.61020  1.0000
  C   C36       1.0  0.31562  0.86509  0.88982  1.0000
  N   N1        1.0  0.84997  0.51617  0.62260  1.0000
  N   N2        1.0  0.84998  0.01617  0.87739  1.0000
  N   N3        1.0  0.15003  0.48382  0.37739  1.0000
  N   N4        1.0  0.15002  0.98382  0.12262  1.0000
  N   N5        1.0  0.81581  0.63241  0.64359  1.0000
  N   N6        1.0  0.81582  0.13241  0.85640  1.0000
  N   N7        1.0  0.18419  0.36760  0.35641  1.0000
  N   N8        1.0  0.18417  0.86759  0.14360  1.0000
  N   N9        1.0  0.77763  0.74240  0.66787  1.0000
  N   N10       1.0  0.77766  0.24241  0.83212  1.0000
  N   N11       1.0  0.22238  0.25760  0.33213  1.0000
  N   N12       1.0  0.22235  0.75759  0.16789  1.0000
  N   N13       1.0  0.07336  0.93372  0.38074  1.0000
  N   N14       1.0  0.07336  0.43370  0.11927  1.0000
  N   N15       1.0  0.92664  0.06628  0.61926  1.0000
  N   N16       1.0  0.92663  0.56629  0.88073  1.0000
  N   N17       1.0  0.99016  0.69947  0.44842  1.0000
  N   N18       1.0  0.99016  0.19947  0.05157  1.0000
  N   N19       1.0  0.00985  0.30053  0.55158  1.0000
  N   N20       1.0  0.00984  0.80052  0.94843  1.0000
