data_image0
_chemical_formula_structural       H24Pb2C28N4Cl4O20
_chemical_formula_sum              "H24 Pb2 C28 N4 Cl4 O20"
_cell_length_a       8.22059
_cell_length_b       9.3588
_cell_length_c       12.5577
_cell_angle_alpha    73.7793
_cell_angle_beta     78.1698
_cell_angle_gamma    85.1272

_space_group_name_H-M_alt    "P 1"
_space_group_IT_number       1

loop_
  _space_group_symop_operation_xyz
  'x, y, z'

loop_
  _atom_site_type_symbol
  _atom_site_label
  _atom_site_symmetry_multiplicity
  _atom_site_fract_x
  _atom_site_fract_y
  _atom_site_fract_z
  _atom_site_occupancy
  H   H1        1.0  0.31970  0.52413  0.01671  1.0000
  H   H2        1.0  0.68029  0.47587  0.98329  1.0000
  H   H3        1.0  0.87653  0.99439  0.10735  1.0000
  H   H4        1.0  0.12348  0.00561  0.89264  1.0000
  H   H5        1.0  0.21583  0.58603  0.18427  1.0000
  H   H6        1.0  0.78417  0.41397  0.81573  1.0000
  H   H7        1.0  0.43658  0.58828  0.16325  1.0000
  H   H8        1.0  0.56342  0.41172  0.83676  1.0000
  H   H9        1.0  0.41746  0.53677  0.36877  1.0000
  H   H10       1.0  0.58254  0.46322  0.63124  1.0000
  H   H11       1.0  0.41139  0.33119  0.54933  1.0000
  H   H12       1.0  0.58861  0.66880  0.45067  1.0000
  H   H13       1.0  0.26234  0.81925  0.66013  1.0000
  H   H14       1.0  0.73768  0.18075  0.33987  1.0000
  H   H15       1.0  0.36589  0.06408  0.65130  1.0000
  H   H16       1.0  0.63411  0.93592  0.34870  1.0000
  H   H17       1.0  0.02401  0.64005  0.40258  1.0000
  H   H18       1.0  0.97599  0.35994  0.59743  1.0000
  H   H19       1.0  0.14253  0.65885  0.56738  1.0000
  H   H20       1.0  0.85750  0.34114  0.43261  1.0000
  H   H21       1.0  0.88141  0.80049  0.24731  1.0000
  H   H22       1.0  0.11856  0.19952  0.75270  1.0000
  H   H23       1.0  0.08148  0.78667  0.16632  1.0000
  H   H24       1.0  0.91849  0.21332  0.83369  1.0000
  Pb  Pb1       1.0  0.20614  0.19987  0.11867  1.0000
  Pb  Pb2       1.0  0.79385  0.80013  0.88133  1.0000
  C   C1        1.0  0.33102  0.51693  0.17668  1.0000
  C   C2        1.0  0.66898  0.48307  0.82332  1.0000
  C   C3        1.0  0.32762  0.39572  0.28464  1.0000
  C   C4        1.0  0.67238  0.60428  0.71537  1.0000
  C   C5        1.0  0.37621  0.42569  0.37773  1.0000
  C   C6        1.0  0.62378  0.57431  0.62227  1.0000
  C   C7        1.0  0.37382  0.31296  0.47589  1.0000
  C   C8        1.0  0.62617  0.68703  0.52411  1.0000
  C   C9        1.0  0.32192  0.16985  0.48245  1.0000
  C   C10       1.0  0.67807  0.83015  0.51755  1.0000
  C   C11       1.0  0.26946  0.15068  0.38654  1.0000
  C   C12       1.0  0.73053  0.84932  0.61345  1.0000
  C   C13       1.0  0.20527  0.00964  0.39239  1.0000
  C   C14       1.0  0.79473  0.99036  0.60761  1.0000
  C   C15       1.0  0.20495  0.89039  0.49140  1.0000
  C   C16       1.0  0.79505  0.10961  0.50860  1.0000
  C   C17       1.0  0.26489  0.91198  0.58469  1.0000
  C   C18       1.0  0.73512  0.08802  0.41531  1.0000
  C   C19       1.0  0.32015  0.04734  0.58049  1.0000
  C   C20       1.0  0.67985  0.95266  0.41951  1.0000
  C   C21       1.0  0.07645  0.86849  0.30916  1.0000
  C   C22       1.0  0.92354  0.13150  0.69084  1.0000
  C   C23       1.0  0.07753  0.74262  0.40281  1.0000
  C   C24       1.0  0.92247  0.25738  0.59719  1.0000
  C   C25       1.0  0.14175  0.75337  0.49319  1.0000
  C   C26       1.0  0.85826  0.24662  0.50680  1.0000
  C   C27       1.0  0.99981  0.85775  0.21314  1.0000
  C   C28       1.0  0.00018  0.14225  0.78687  1.0000
  N   N1        1.0  0.27538  0.26268  0.29004  1.0000
  N   N2        1.0  0.72462  0.73732  0.70996  1.0000
  N   N3        1.0  0.14178  0.99588  0.30402  1.0000
  N   N4        1.0  0.85822  0.00412  0.69599  1.0000
  Cl  Cl1       1.0  0.47548  0.09868  0.84067  1.0000
  Cl  Cl2       1.0  0.52453  0.90133  0.15932  1.0000
  Cl  Cl3       1.0  0.86144  0.49272  0.17358  1.0000
  Cl  Cl4       1.0  0.13857  0.50730  0.82641  1.0000
  O   O1        1.0  0.34376  0.45166  0.08531  1.0000
  O   O2        1.0  0.65625  0.54834  0.91470  1.0000
  O   O3        1.0  0.97497  0.00056  0.13883  1.0000
  O   O4        1.0  0.02502  0.99944  0.86117  1.0000
  O   O5        1.0  0.59359  0.12611  0.90380  1.0000
  O   O6        1.0  0.40641  0.87390  0.09620  1.0000
  O   O7        1.0  0.30440  0.11716  0.90053  1.0000
  O   O8        1.0  0.69560  0.88286  0.09946  1.0000
  O   O9        1.0  0.49923  0.20228  0.72856  1.0000
  O   O10       1.0  0.50079  0.79772  0.27143  1.0000
  O   O11       1.0  0.49796  0.94466  0.83049  1.0000
  O   O12       1.0  0.50204  0.05534  0.16951  1.0000
  O   O13       1.0  0.93998  0.34188  0.19893  1.0000
  O   O14       1.0  0.06004  0.65814  0.80107  1.0000
  O   O15       1.0  0.97411  0.59579  0.08678  1.0000
  O   O16       1.0  0.02590  0.40422  0.91322  1.0000
  O   O17       1.0  0.70843  0.48478  0.13388  1.0000
  O   O18       1.0  0.29158  0.51522  0.86612  1.0000
  O   O19       1.0  0.82333  0.53908  0.27755  1.0000
  O   O20       1.0  0.17668  0.46093  0.72245  1.0000
