data_image0
_chemical_formula_structural       Cu4H28C40I4N8
_chemical_formula_sum              "Cu4 H28 C40 I4 N8"
_cell_length_a       9.30665
_cell_length_b       9.30666
_cell_length_c       11.5936
_cell_angle_alpha    90.726
_cell_angle_beta     90.7259
_cell_angle_gamma    103.831

_space_group_name_H-M_alt    "P 1"
_space_group_IT_number       1

loop_
  _space_group_symop_operation_xyz
  'x, y, z'

loop_
  _atom_site_type_symbol
  _atom_site_label
  _atom_site_symmetry_multiplicity
  _atom_site_fract_x
  _atom_site_fract_y
  _atom_site_fract_z
  _atom_site_occupancy
  Cu  Cu1       1.0  0.49053  0.86980  0.95372  1.0000
  Cu  Cu2       1.0  0.13020  0.50947  0.54628  1.0000
  Cu  Cu3       1.0  0.50947  0.13019  0.04628  1.0000
  Cu  Cu4       1.0  0.86980  0.49054  0.45372  1.0000
  H   H1        1.0  0.71933  0.85982  0.14679  1.0000
  H   H2        1.0  0.14017  0.28067  0.35321  1.0000
  H   H3        1.0  0.28067  0.14017  0.85321  1.0000
  H   H4        1.0  0.85982  0.71934  0.64679  1.0000
  H   H5        1.0  0.90358  0.70550  0.18517  1.0000
  H   H6        1.0  0.29450  0.09642  0.31483  1.0000
  H   H7        1.0  0.09643  0.29450  0.81483  1.0000
  H   H8        1.0  0.70550  0.90358  0.68517  1.0000
  H   H9        1.0  0.90487  0.49360  0.05133  1.0000
  H   H10       1.0  0.50640  0.09514  0.44866  1.0000
  H   H11       1.0  0.09514  0.50640  0.94866  1.0000
  H   H12       1.0  0.49360  0.90487  0.55134  1.0000
  H   H13       1.0  0.72699  0.44110  0.88491  1.0000
  H   H14       1.0  0.55890  0.27302  0.61509  1.0000
  H   H15       1.0  0.27302  0.55890  0.11509  1.0000
  H   H16       1.0  0.44110  0.72699  0.38491  1.0000
  H   H17       1.0  0.57987  0.42013  0.75000  1.0000
  H   H18       1.0  0.42013  0.57987  0.25000  1.0000
  H   H19       1.0  0.17036  0.75320  0.93128  1.0000
  H   H20       1.0  0.24680  0.82962  0.56872  1.0000
  H   H21       1.0  0.82962  0.24680  0.06873  1.0000
  H   H22       1.0  0.75320  0.17036  0.43128  1.0000
  H   H23       1.0  0.99129  0.91203  0.92869  1.0000
  H   H24       1.0  0.08798  0.00870  0.57130  1.0000
  H   H25       1.0  0.00870  0.08798  0.07131  1.0000
  H   H26       1.0  0.91203  0.99129  0.42869  1.0000
  H   H27       1.0  0.95418  0.04582  0.75000  1.0000
  H   H28       1.0  0.04582  0.95418  0.25000  1.0000
  C   C1        1.0  0.72671  0.76743  0.09030  1.0000
  C   C2        1.0  0.23257  0.27329  0.40970  1.0000
  C   C3        1.0  0.27329  0.23257  0.90970  1.0000
  C   C4        1.0  0.76743  0.72671  0.59030  1.0000
  C   C5        1.0  0.82790  0.68180  0.11109  1.0000
  C   C6        1.0  0.31819  0.17211  0.38892  1.0000
  C   C7        1.0  0.17211  0.31819  0.88892  1.0000
  C   C8        1.0  0.68180  0.82790  0.61109  1.0000
  C   C9        1.0  0.82865  0.56387  0.03586  1.0000
  C   C10       1.0  0.43613  0.17135  0.46413  1.0000
  C   C11       1.0  0.17135  0.43613  0.96414  1.0000
  C   C12       1.0  0.56387  0.82866  0.53586  1.0000
  C   C13       1.0  0.72909  0.53457  0.94300  1.0000
  C   C14       1.0  0.46542  0.27091  0.55699  1.0000
  C   C15       1.0  0.27091  0.46542  0.05700  1.0000
  C   C16       1.0  0.53457  0.72910  0.44300  1.0000
  C   C17       1.0  0.63076  0.62602  0.92787  1.0000
  C   C18       1.0  0.37398  0.36924  0.57212  1.0000
  C   C19       1.0  0.36924  0.37398  0.07213  1.0000
  C   C20       1.0  0.62602  0.63076  0.42787  1.0000
  C   C21       1.0  0.51809  0.60390  0.83497  1.0000
  C   C22       1.0  0.39610  0.48191  0.66503  1.0000
  C   C23       1.0  0.48191  0.39610  0.16503  1.0000
  C   C24       1.0  0.60390  0.51809  0.33497  1.0000
  C   C25       1.0  0.50564  0.49436  0.75000  1.0000
  C   C26       1.0  0.49437  0.50564  0.25000  1.0000
  C   C27       1.0  0.32105  0.67894  0.75000  1.0000
  C   C28       1.0  0.67894  0.32106  0.25001  1.0000
  C   C29       1.0  0.21995  0.78004  0.75000  1.0000
  C   C30       1.0  0.78004  0.21995  0.25000  1.0000
  C   C31       1.0  0.14880  0.80553  0.85153  1.0000
  C   C32       1.0  0.19447  0.85119  0.64847  1.0000
  C   C33       1.0  0.85119  0.19447  0.14847  1.0000
  C   C34       1.0  0.80553  0.14880  0.35154  1.0000
  C   C35       1.0  0.05014  0.89719  0.85041  1.0000
  C   C36       1.0  0.10282  0.94986  0.64958  1.0000
  C   C37       1.0  0.94985  0.10282  0.14958  1.0000
  C   C38       1.0  0.89719  0.05014  0.35041  1.0000
  C   C39       1.0  0.02866  0.97134  0.75000  1.0000
  C   C40       1.0  0.97135  0.02866  0.25000  1.0000
  I   I1        1.0  0.63540  0.10363  0.85038  1.0000
  I   I2        1.0  0.89637  0.36459  0.64962  1.0000
  I   I3        1.0  0.36460  0.89636  0.14963  1.0000
  I   I4        1.0  0.10363  0.63540  0.35037  1.0000
  N   N1        1.0  0.42521  0.69726  0.83462  1.0000
  N   N2        1.0  0.30273  0.57478  0.66538  1.0000
  N   N3        1.0  0.57478  0.30273  0.16539  1.0000
  N   N4        1.0  0.69727  0.42522  0.33462  1.0000
  N   N5        1.0  0.63202  0.74152  0.00027  1.0000
  N   N6        1.0  0.25848  0.36798  0.49973  1.0000
  N   N7        1.0  0.36798  0.25847  0.99974  1.0000
  N   N8        1.0  0.74152  0.63203  0.50027  1.0000
