data_image0
_chemical_formula_structural       ZnH22C16Br4N2O8
_chemical_formula_sum              "Zn1 H22 C16 Br4 N2 O8"
_cell_length_a       8.21066
_cell_length_b       8.94605
_cell_length_c       9.03152
_cell_angle_alpha    78.0084
_cell_angle_beta     69.701
_cell_angle_gamma    77.8495

_space_group_name_H-M_alt    "P 1"
_space_group_IT_number       1

loop_
  _space_group_symop_operation_xyz
  'x, y, z'

loop_
  _atom_site_type_symbol
  _atom_site_label
  _atom_site_symmetry_multiplicity
  _atom_site_fract_x
  _atom_site_fract_y
  _atom_site_fract_z
  _atom_site_occupancy
  Zn  Zn1       1.0  0.50000  0.50000  0.50000  1.0000
  H   H1        1.0  0.24690  0.52248  0.39934  1.0000
  H   H2        1.0  0.75310  0.47752  0.60067  1.0000
  H   H3        1.0  0.44006  0.82613  0.57958  1.0000
  H   H4        1.0  0.55994  0.17388  0.42042  1.0000
  H   H5        1.0  0.11301  0.66175  0.91990  1.0000
  H   H6        1.0  0.88699  0.33825  0.08010  1.0000
  H   H7        1.0  0.97422  0.84501  0.93265  1.0000
  H   H8        1.0  0.02578  0.15499  0.06735  1.0000
  H   H9        1.0  0.13396  0.79071  0.03699  1.0000
  H   H10       1.0  0.86604  0.20929  0.96301  1.0000
  H   H11       1.0  0.34111  0.05086  0.65848  1.0000
  H   H12       1.0  0.65888  0.94914  0.34151  1.0000
  H   H13       1.0  0.25043  0.05004  0.86798  1.0000
  H   H14       1.0  0.74957  0.94996  0.13202  1.0000
  H   H15       1.0  0.10814  0.07833  0.74989  1.0000
  H   H16       1.0  0.89186  0.92167  0.25011  1.0000
  H   H17       1.0  0.16543  0.38864  0.73049  1.0000
  H   H18       1.0  0.83458  0.61136  0.26952  1.0000
  H   H19       1.0  0.03267  0.35991  0.62068  1.0000
  H   H20       1.0  0.96734  0.64009  0.37933  1.0000
  H   H21       1.0  0.04425  0.55133  0.64414  1.0000
  H   H22       1.0  0.95575  0.44867  0.35586  1.0000
  C   C1        1.0  0.39515  0.73585  0.24472  1.0000
  C   C2        1.0  0.60486  0.26415  0.75528  1.0000
  C   C3        1.0  0.44403  0.87266  0.11528  1.0000
  C   C4        1.0  0.55597  0.12734  0.88472  1.0000
  C   C5        1.0  0.57096  0.84878  0.96764  1.0000
  C   C6        1.0  0.42904  0.15122  0.03236  1.0000
  C   C7        1.0  0.62646  0.97603  0.85384  1.0000
  C   C8        1.0  0.37353  0.02396  0.14616  1.0000
  C   C9        1.0  0.34781  0.76313  0.68110  1.0000
  C   C10       1.0  0.65219  0.23688  0.31890  1.0000
  C   C11       1.0  0.10610  0.78335  0.92824  1.0000
  C   C12       1.0  0.89390  0.21665  0.07175  1.0000
  C   C13       1.0  0.23358  0.01635  0.76467  1.0000
  C   C14       1.0  0.76642  0.98365  0.23533  1.0000
  C   C15       1.0  0.11873  0.43514  0.62766  1.0000
  C   C16       1.0  0.88128  0.56486  0.37235  1.0000
  Br  Br1       1.0  0.66324  0.64360  0.92606  1.0000
  Br  Br2       1.0  0.33676  0.35639  0.07394  1.0000
  Br  Br3       1.0  0.79766  0.94590  0.65212  1.0000
  Br  Br4       1.0  0.20231  0.05409  0.34787  1.0000
  N   N1        1.0  0.23532  0.85063  0.78769  1.0000
  N   N2        1.0  0.76468  0.14937  0.21230  1.0000
  O   O1        1.0  0.49128  0.70163  0.33462  1.0000
  O   O2        1.0  0.50872  0.29837  0.66538  1.0000
  O   O3        1.0  0.26935  0.67216  0.25130  1.0000
  O   O4        1.0  0.73065  0.32784  0.74871  1.0000
  O   O5        1.0  0.27017  0.43947  0.48686  1.0000
  O   O6        1.0  0.72984  0.56053  0.51315  1.0000
  O   O7        1.0  0.34969  0.62075  0.69301  1.0000
  O   O8        1.0  0.65031  0.37925  0.30698  1.0000
