data_image0
_chemical_formula_structural       Zn4P4H24C24N20O16
_chemical_formula_sum              "Zn4 P4 H24 C24 N20 O16"
_cell_length_a       5.4022
_cell_length_b       8.49809
_cell_length_c       21.3063
_cell_angle_alpha    90.0001
_cell_angle_beta     93.8773
_cell_angle_gamma    90

_space_group_name_H-M_alt    "P 1"
_space_group_IT_number       1

loop_
  _space_group_symop_operation_xyz
  'x, y, z'

loop_
  _atom_site_type_symbol
  _atom_site_label
  _atom_site_symmetry_multiplicity
  _atom_site_fract_x
  _atom_site_fract_y
  _atom_site_fract_z
  _atom_site_occupancy
  Zn  Zn1       1.0  0.17731  0.86339  0.27629  1.0000
  Zn  Zn2       1.0  0.82270  0.36339  0.22371  1.0000
  Zn  Zn3       1.0  0.82270  0.13661  0.72371  1.0000
  Zn  Zn4       1.0  0.17731  0.63661  0.77629  1.0000
  P   P1        1.0  0.68430  0.04726  0.29427  1.0000
  P   P2        1.0  0.31571  0.54725  0.20573  1.0000
  P   P3        1.0  0.31571  0.95275  0.70573  1.0000
  P   P4        1.0  0.68430  0.45275  0.79427  1.0000
  H   H1        1.0  0.95970  0.82735  0.61202  1.0000
  H   H2        1.0  0.04031  0.32735  0.88798  1.0000
  H   H3        1.0  0.04030  0.17265  0.38798  1.0000
  H   H4        1.0  0.95968  0.67265  0.11202  1.0000
  H   H5        1.0  0.75781  0.86414  0.50280  1.0000
  H   H6        1.0  0.24219  0.36413  0.99720  1.0000
  H   H7        1.0  0.24220  0.13587  0.49720  1.0000
  H   H8        1.0  0.75779  0.63586  0.00280  1.0000
  H   H9        1.0  0.18641  0.53865  0.55287  1.0000
  H   H10       1.0  0.81358  0.03864  0.94713  1.0000
  H   H11       1.0  0.81359  0.46135  0.44713  1.0000
  H   H12       1.0  0.18639  0.96135  0.05287  1.0000
  H   H13       1.0  0.41299  0.51531  0.66021  1.0000
  H   H14       1.0  0.58700  0.01531  0.83979  1.0000
  H   H15       1.0  0.58700  0.48468  0.33979  1.0000
  H   H16       1.0  0.41298  0.98469  0.16021  1.0000
  H   H17       1.0  0.76887  0.65576  0.68314  1.0000
  H   H18       1.0  0.23113  0.15576  0.81685  1.0000
  H   H19       1.0  0.23112  0.34424  0.31686  1.0000
  H   H20       1.0  0.76886  0.84424  0.18314  1.0000
  H   H21       1.0  0.60944  0.92439  0.38373  1.0000
  H   H22       1.0  0.39057  0.42439  0.11627  1.0000
  H   H23       1.0  0.39058  0.07561  0.61627  1.0000
  H   H24       1.0  0.60943  0.57561  0.88373  1.0000
  C   C1        1.0  0.78830  0.76833  0.59594  1.0000
  C   C2        1.0  0.21170  0.26832  0.90406  1.0000
  C   C3        1.0  0.21171  0.23168  0.40406  1.0000
  C   C4        1.0  0.78827  0.73168  0.09594  1.0000
  C   C5        1.0  0.67397  0.78748  0.53631  1.0000
  C   C6        1.0  0.32604  0.28747  0.96369  1.0000
  C   C7        1.0  0.32603  0.21252  0.46370  1.0000
  C   C8        1.0  0.67395  0.71252  0.03631  1.0000
  C   C9        1.0  0.45256  0.70618  0.51999  1.0000
  C   C10       1.0  0.54744  0.20616  0.98002  1.0000
  C   C11       1.0  0.54745  0.29384  0.48001  1.0000
  C   C12       1.0  0.45254  0.79382  0.01999  1.0000
  C   C13       1.0  0.35505  0.60595  0.56460  1.0000
  C   C14       1.0  0.64495  0.10593  0.93540  1.0000
  C   C15       1.0  0.64495  0.39406  0.43540  1.0000
  C   C16       1.0  0.35503  0.89405  0.06460  1.0000
  C   C17       1.0  0.47686  0.59103  0.62337  1.0000
  C   C18       1.0  0.52314  0.09103  0.87663  1.0000
  C   C19       1.0  0.52316  0.40897  0.37663  1.0000
  C   C20       1.0  0.47683  0.90897  0.12337  1.0000
  C   C21       1.0  0.32037  0.71829  0.45833  1.0000
  C   C22       1.0  0.67963  0.21828  0.04167  1.0000
  C   C23       1.0  0.67964  0.28171  0.54167  1.0000
  C   C24       1.0  0.32035  0.78171  0.95833  1.0000
  N   N1        1.0  0.68781  0.67183  0.63747  1.0000
  N   N2        1.0  0.31220  0.17182  0.86253  1.0000
  N   N3        1.0  0.31218  0.32817  0.36253  1.0000
  N   N4        1.0  0.68780  0.82817  0.13747  1.0000
  N   N5        1.0  0.10601  0.63951  0.44339  1.0000
  N   N6        1.0  0.89399  0.13949  0.05661  1.0000
  N   N7        1.0  0.89400  0.36050  0.55661  1.0000
  N   N8        1.0  0.10599  0.86049  0.94339  1.0000
  N   N9        1.0  0.04238  0.67337  0.38383  1.0000
  N   N10       1.0  0.95763  0.17336  0.11617  1.0000
  N   N11       1.0  0.95763  0.32664  0.61617  1.0000
  N   N12       1.0  0.04237  0.82663  0.88383  1.0000
  N   N13       1.0  0.21289  0.77022  0.36318  1.0000
  N   N14       1.0  0.78711  0.27022  0.13681  1.0000
  N   N15       1.0  0.78712  0.22978  0.63682  1.0000
  N   N16       1.0  0.21289  0.72978  0.86318  1.0000
  N   N17       1.0  0.38949  0.80126  0.40856  1.0000
  N   N18       1.0  0.61052  0.30125  0.09144  1.0000
  N   N19       1.0  0.61052  0.19875  0.59144  1.0000
  N   N20       1.0  0.38948  0.69874  0.90856  1.0000
  O   O1        1.0  0.83334  0.92805  0.25668  1.0000
  O   O2        1.0  0.16667  0.42805  0.24332  1.0000
  O   O3        1.0  0.16666  0.07195  0.74332  1.0000
  O   O4        1.0  0.83334  0.57195  0.75668  1.0000
  O   O5        1.0  0.78909  0.21428  0.29127  1.0000
  O   O6        1.0  0.21091  0.71427  0.20873  1.0000
  O   O7        1.0  0.21091  0.78573  0.70873  1.0000
  O   O8        1.0  0.78910  0.28572  0.79127  1.0000
  O   O9        1.0  0.40819  0.03871  0.27238  1.0000
  O   O10       1.0  0.59183  0.53871  0.22762  1.0000
  O   O11       1.0  0.59182  0.96129  0.72762  1.0000
  O   O12       1.0  0.40819  0.46129  0.77238  1.0000
  O   O13       1.0  0.72423  0.00732  0.36775  1.0000
  O   O14       1.0  0.27577  0.50732  0.13224  1.0000
  O   O15       1.0  0.27577  0.99268  0.63224  1.0000
  O   O16       1.0  0.72423  0.49269  0.86776  1.0000
