data_image0
_chemical_formula_structural       Cd3H16C20N2O12
_chemical_formula_sum              "Cd3 H16 C20 N2 O12"
_cell_length_a       7.7357
_cell_length_b       8.96025
_cell_length_c       9.50798
_cell_angle_alpha    62.9367
_cell_angle_beta     86.794
_cell_angle_gamma    70.0484

_space_group_name_H-M_alt    "P 1"
_space_group_IT_number       1

loop_
  _space_group_symop_operation_xyz
  'x, y, z'

loop_
  _atom_site_type_symbol
  _atom_site_label
  _atom_site_symmetry_multiplicity
  _atom_site_fract_x
  _atom_site_fract_y
  _atom_site_fract_z
  _atom_site_occupancy
  Cd  Cd1       1.0  0.50000  1.00000  0.50000  1.0000
  Cd  Cd2       1.0  0.71703  0.54984  0.51484  1.0000
  Cd  Cd3       1.0  0.28297  0.45016  0.48516  1.0000
  H   H1        1.0  0.52609  0.82780  0.15868  1.0000
  H   H2        1.0  0.47390  0.17220  0.84132  1.0000
  H   H3        1.0  0.49345  0.85022  0.88663  1.0000
  H   H4        1.0  0.50655  0.14978  0.11338  1.0000
  H   H5        1.0  0.91734  0.32694  0.06785  1.0000
  H   H6        1.0  0.08267  0.67306  0.93216  1.0000
  H   H7        1.0  0.92462  0.32035  0.33510  1.0000
  H   H8        1.0  0.07538  0.67966  0.66490  1.0000
  H   H9        1.0  0.16597  0.93676  0.87057  1.0000
  H   H10       1.0  0.83402  0.06324  0.12942  1.0000
  H   H11       1.0  0.09323  0.92432  0.70594  1.0000
  H   H12       1.0  0.90677  0.07568  0.29406  1.0000
  H   H13       1.0  0.84606  0.96860  0.89094  1.0000
  H   H14       1.0  0.15394  0.03141  0.10906  1.0000
  H   H15       1.0  0.84644  0.19019  0.81943  1.0000
  H   H16       1.0  0.15356  0.80981  0.18056  1.0000
  C   C1        1.0  0.60684  0.71827  0.13399  1.0000
  C   C2        1.0  0.39316  0.28172  0.86601  1.0000
  C   C3        1.0  0.59007  0.73079  0.98387  1.0000
  C   C4        1.0  0.40993  0.26921  0.01613  1.0000
  C   C5        1.0  0.70066  0.58647  0.95923  1.0000
  C   C6        1.0  0.29934  0.41353  0.04077  1.0000
  C   C7        1.0  0.82580  0.43821  0.08546  1.0000
  C   C8        1.0  0.17421  0.56179  0.91454  1.0000
  C   C9        1.0  0.83089  0.43473  0.23297  1.0000
  C   C10       1.0  0.16912  0.56527  0.76703  1.0000
  C   C11       1.0  0.14029  0.16271  0.64768  1.0000
  C   C12       1.0  0.85972  0.83729  0.35232  1.0000
  C   C13       1.0  0.07277  0.01509  0.75864  1.0000
  C   C14       1.0  0.92723  0.98492  0.24136  1.0000
  C   C15       1.0  0.87147  0.08074  0.78917  1.0000
  C   C16       1.0  0.12853  0.91926  0.21083  1.0000
  C   C17       1.0  0.73189  0.13887  0.65052  1.0000
  C   C18       1.0  0.26810  0.86114  0.34948  1.0000
  C   C19       1.0  0.68375  0.59077  0.80072  1.0000
  C   C20       1.0  0.31626  0.40923  0.19928  1.0000
  N   N1        1.0  0.72231  0.57186  0.25748  1.0000
  N   N2        1.0  0.27769  0.42814  0.74252  1.0000
  O   O1        1.0  0.62013  0.30199  0.58092  1.0000
  O   O2        1.0  0.37987  0.69801  0.41908  1.0000
  O   O3        1.0  0.02816  0.31770  0.55726  1.0000
  O   O4        1.0  0.97183  0.68231  0.44274  1.0000
  O   O5        1.0  0.31660  0.12584  0.64884  1.0000
  O   O6        1.0  0.68339  0.87417  0.35115  1.0000
  O   O7        1.0  0.73470  0.01587  0.61719  1.0000
  O   O8        1.0  0.26530  0.98413  0.38280  1.0000
  O   O9        1.0  0.80270  0.46734  0.77774  1.0000
  O   O10       1.0  0.19731  0.53266  0.22227  1.0000
  O   O11       1.0  0.54903  0.71506  0.69768  1.0000
  O   O12       1.0  0.45097  0.28493  0.30232  1.0000
