data_image0
_chemical_formula_structural       Mn2H36C42N4O8
_chemical_formula_sum              "Mn2 H36 C42 N4 O8"
_cell_length_a       9.49982
_cell_length_b       10.2061
_cell_length_c       11.0791
_cell_angle_alpha    77.808
_cell_angle_beta     83.431
_cell_angle_gamma    65.4783

_space_group_name_H-M_alt    "P 1"
_space_group_IT_number       1

loop_
  _space_group_symop_operation_xyz
  'x, y, z'

loop_
  _atom_site_type_symbol
  _atom_site_label
  _atom_site_symmetry_multiplicity
  _atom_site_fract_x
  _atom_site_fract_y
  _atom_site_fract_z
  _atom_site_occupancy
  Mn  Mn1       1.0  0.46745  0.86060  0.38262  1.0000
  Mn  Mn2       1.0  0.53255  0.13940  0.61738  1.0000
  H   H1        1.0  0.41159  0.42585  0.41656  1.0000
  H   H2        1.0  0.58841  0.57415  0.58344  1.0000
  H   H3        1.0  0.31082  0.25844  0.12728  1.0000
  H   H4        1.0  0.68918  0.74156  0.87272  1.0000
  H   H5        1.0  0.33553  0.68029  0.04900  1.0000
  H   H6        1.0  0.66448  0.31971  0.95101  1.0000
  H   H7        1.0  0.33807  0.38512  0.90565  1.0000
  H   H8        1.0  0.66193  0.61489  0.09436  1.0000
  H   H9        1.0  0.30728  0.57260  0.87858  1.0000
  H   H10       1.0  0.69272  0.42740  0.12142  1.0000
  H   H11       1.0  0.15264  0.51850  0.93335  1.0000
  H   H12       1.0  0.84736  0.48151  0.06666  1.0000
  H   H13       1.0  0.20433  0.07582  0.53393  1.0000
  H   H14       1.0  0.79567  0.92418  0.46606  1.0000
  H   H15       1.0  0.00049  0.07610  0.69739  1.0000
  H   H16       1.0  0.99952  0.92390  0.30261  1.0000
  H   H17       1.0  0.13610  0.61832  0.68958  1.0000
  H   H18       1.0  0.86389  0.38168  0.31041  1.0000
  H   H19       1.0  0.33145  0.63677  0.52653  1.0000
  H   H20       1.0  0.66855  0.36323  0.47347  1.0000
  H   H21       1.0  0.82327  0.92117  0.78870  1.0000
  H   H22       1.0  0.17673  0.07883  0.21130  1.0000
  H   H23       1.0  0.93164  0.73017  0.82915  1.0000
  H   H24       1.0  0.06836  0.26983  0.17084  1.0000
  H   H25       1.0  0.99118  0.96903  0.91412  1.0000
  H   H26       1.0  0.00881  0.03097  0.08588  1.0000
  H   H27       1.0  0.10047  0.77948  0.96043  1.0000
  H   H28       1.0  0.89953  0.22052  0.03956  1.0000
  H   H29       1.0  0.49729  0.04793  0.13035  1.0000
  H   H30       1.0  0.50271  0.95206  0.86965  1.0000
  H   H31       1.0  0.68428  0.05656  0.95283  1.0000
  H   H32       1.0  0.31572  0.94343  0.04717  1.0000
  H   H33       1.0  0.02351  0.66301  0.15602  1.0000
  H   H34       1.0  0.97649  0.33699  0.84398  1.0000
  H   H35       1.0  0.82094  0.67199  0.32416  1.0000
  H   H36       1.0  0.17906  0.32800  0.67584  1.0000
  C   C1        1.0  0.37761  0.56414  0.23629  1.0000
  C   C2        1.0  0.62240  0.43586  0.76371  1.0000
  C   C3        1.0  0.38504  0.43866  0.32060  1.0000
  C   C4        1.0  0.61495  0.56134  0.67940  1.0000
  C   C5        1.0  0.35924  0.32902  0.28144  1.0000
  C   C6        1.0  0.64075  0.67098  0.71856  1.0000
  C   C7        1.0  0.32801  0.34567  0.15722  1.0000
  C   C8        1.0  0.67199  0.65434  0.84279  1.0000
  C   C9        1.0  0.31706  0.47178  0.07188  1.0000
  C   C10       1.0  0.68293  0.52823  0.92812  1.0000
  C   C11       1.0  0.34122  0.58123  0.11323  1.0000
  C   C12       1.0  0.65878  0.41877  0.88678  1.0000
  C   C13       1.0  0.41100  0.67806  0.27837  1.0000
  C   C14       1.0  0.58900  0.32194  0.72163  1.0000
  C   C15       1.0  0.36678  0.19447  0.37126  1.0000
  C   C16       1.0  0.63322  0.80553  0.62874  1.0000
  C   C17       1.0  0.27743  0.48822  0.94046  1.0000
  C   C18       1.0  0.72257  0.51178  0.05954  1.0000
  C   C19       1.0  0.18391  0.97706  0.57025  1.0000
  C   C20       1.0  0.81609  0.02294  0.42974  1.0000
  C   C21       1.0  0.07217  0.97571  0.66259  1.0000
  C   C22       1.0  0.92783  0.02429  0.33741  1.0000
  C   C23       1.0  0.05211  0.84559  0.70971  1.0000
  C   C24       1.0  0.94789  0.15441  0.29028  1.0000
  C   C25       1.0  0.14558  0.72302  0.65741  1.0000
  C   C26       1.0  0.85442  0.27698  0.34259  1.0000
  C   C27       1.0  0.25493  0.73272  0.56523  1.0000
  C   C28       1.0  0.74507  0.26728  0.43477  1.0000
  C   C29       1.0  0.93881  0.83719  0.81402  1.0000
  C   C30       1.0  0.06119  0.16281  0.18597  1.0000
  C   C31       1.0  0.98460  0.86152  0.93396  1.0000
  C   C32       1.0  0.01539  0.13848  0.06604  1.0000
  C   C33       1.0  0.61503  0.96444  0.13130  1.0000
  C   C34       1.0  0.38496  0.03556  0.86871  1.0000
  C   C35       1.0  0.71926  0.96864  0.03345  1.0000
  C   C36       1.0  0.28074  0.03135  0.96655  1.0000
  C   C37       1.0  0.87010  0.85912  0.03915  1.0000
  C   C38       1.0  0.12990  0.14088  0.96086  1.0000
  C   C39       1.0  0.90751  0.75018  0.14555  1.0000
  C   C40       1.0  0.09249  0.24981  0.85445  1.0000
  C   C41       1.0  0.79571  0.75453  0.23970  1.0000
  C   C42       1.0  0.20428  0.24547  0.76030  1.0000
  N   N1        1.0  0.27570  0.85738  0.52199  1.0000
  N   N2        1.0  0.72430  0.14263  0.47801  1.0000
  N   N3        1.0  0.65121  0.85954  0.23333  1.0000
  N   N4        1.0  0.34878  0.14046  0.76667  1.0000
  O   O1        1.0  0.34216  0.81257  0.23034  1.0000
  O   O2        1.0  0.65784  0.18743  0.76967  1.0000
  O   O3        1.0  0.50826  0.63575  0.36445  1.0000
  O   O4        1.0  0.49175  0.36425  0.63555  1.0000
  O   O5        1.0  0.37000  0.19309  0.48644  1.0000
  O   O6        1.0  0.63000  0.80690  0.51356  1.0000
  O   O7        1.0  0.36644  0.08832  0.32790  1.0000
  O   O8        1.0  0.63356  0.91168  0.67210  1.0000
