data_image0
_chemical_formula_structural       Co2H26Pt2C38N14O2
_chemical_formula_sum              "Co2 H26 Pt2 C38 N14 O2"
_cell_length_a       9.63903
_cell_length_b       9.63902
_cell_length_c       11.5553
_cell_angle_alpha    81.0118
_cell_angle_beta     81.0122
_cell_angle_gamma    70.9475

_space_group_name_H-M_alt    "P 1"
_space_group_IT_number       1

loop_
  _space_group_symop_operation_xyz
  'x, y, z'

loop_
  _atom_site_type_symbol
  _atom_site_label
  _atom_site_symmetry_multiplicity
  _atom_site_fract_x
  _atom_site_fract_y
  _atom_site_fract_z
  _atom_site_occupancy
  Co  Co1       1.0  0.24291  0.75709  0.25000  1.0000
  Co  Co2       1.0  0.75709  0.24291  0.75000  1.0000
  H   H1        1.0  0.41737  0.47672  0.27355  1.0000
  H   H2        1.0  0.52328  0.58263  0.22646  1.0000
  H   H3        1.0  0.58262  0.52328  0.72645  1.0000
  H   H4        1.0  0.47672  0.41738  0.77355  1.0000
  H   H5        1.0  0.93407  0.23907  0.08061  1.0000
  H   H6        1.0  0.76093  0.06593  0.41939  1.0000
  H   H7        1.0  0.06593  0.76092  0.91938  1.0000
  H   H8        1.0  0.23908  0.93407  0.58061  1.0000
  H   H9        1.0  0.53800  0.83869  0.85167  1.0000
  H   H10       1.0  0.16131  0.46200  0.64833  1.0000
  H   H11       1.0  0.46201  0.16129  0.14832  1.0000
  H   H12       1.0  0.83871  0.53800  0.35168  1.0000
  H   H13       1.0  0.13950  0.18722  0.94562  1.0000
  H   H14       1.0  0.81278  0.86050  0.55438  1.0000
  H   H15       1.0  0.86051  0.81277  0.05438  1.0000
  H   H16       1.0  0.18723  0.13950  0.44562  1.0000
  H   H17       1.0  0.36634  0.09556  0.80556  1.0000
  H   H18       1.0  0.90444  0.63366  0.69444  1.0000
  H   H19       1.0  0.63368  0.90444  0.19444  1.0000
  H   H20       1.0  0.09556  0.36633  0.30556  1.0000
  H   H21       1.0  0.48329  0.69049  0.04087  1.0000
  H   H22       1.0  0.30951  0.51671  0.45913  1.0000
  H   H23       1.0  0.51671  0.30949  0.95913  1.0000
  H   H24       1.0  0.69051  0.48330  0.54087  1.0000
  H   H25       1.0  0.73530  0.26470  0.25000  1.0000
  H   H26       1.0  0.26470  0.73530  0.75000  1.0000
  Pt  Pt1       1.0  0.50000  0.00001  0.50000  1.0000
  Pt  Pt2       1.0  0.99999  0.50001  0.00001  1.0000
  C   C1        1.0  0.42442  0.91358  0.38853  1.0000
  C   C2        1.0  0.08642  0.57558  0.11147  1.0000
  C   C3        1.0  0.57558  0.08644  0.61147  1.0000
  C   C4        1.0  0.91356  0.42443  0.88854  1.0000
  C   C5        1.0  0.54627  0.80960  0.60258  1.0000
  C   C6        1.0  0.19040  0.45373  0.89742  1.0000
  C   C7        1.0  0.45372  0.19042  0.39741  1.0000
  C   C8        1.0  0.80958  0.54628  0.10259  1.0000
  C   C9        1.0  0.19375  0.98885  0.06696  1.0000
  C   C10       1.0  0.01114  0.80625  0.43305  1.0000
  C   C11       1.0  0.80624  0.01114  0.93304  1.0000
  C   C12       1.0  0.98886  0.19376  0.56696  1.0000
  C   C13       1.0  0.94341  0.15313  0.15498  1.0000
  C   C14       1.0  0.84687  0.05659  0.34502  1.0000
  C   C15       1.0  0.05659  0.84686  0.84501  1.0000
  C   C16       1.0  0.15314  0.94341  0.65499  1.0000
  C   C17       1.0  0.44031  0.88484  0.91167  1.0000
  C   C18       1.0  0.11516  0.55969  0.58833  1.0000
  C   C19       1.0  0.55969  0.11515  0.08833  1.0000
  C   C20       1.0  0.88485  0.44031  0.41167  1.0000
  C   C21       1.0  0.21796  0.07800  0.96363  1.0000
  C   C22       1.0  0.92200  0.78205  0.53637  1.0000
  C   C23       1.0  0.78204  0.92199  0.03637  1.0000
  C   C24       1.0  0.07800  0.21796  0.46363  1.0000
  C   C25       1.0  0.06725  0.02758  0.15677  1.0000
  C   C26       1.0  0.97242  0.93275  0.34322  1.0000
  C   C27       1.0  0.93275  0.97241  0.84322  1.0000
  C   C28       1.0  0.02759  0.06725  0.65677  1.0000
  C   C29       1.0  0.34379  0.02625  0.88548  1.0000
  C   C30       1.0  0.97375  0.65621  0.61452  1.0000
  C   C31       1.0  0.65621  0.97374  0.11452  1.0000
  C   C32       1.0  0.02626  0.34379  0.38548  1.0000
  C   C33       1.0  0.41037  0.80069  0.01638  1.0000
  C   C34       1.0  0.19931  0.58963  0.48362  1.0000
  C   C35       1.0  0.58963  0.19930  0.98361  1.0000
  C   C36       1.0  0.80070  0.41038  0.51639  1.0000
  C   C37       1.0  0.83268  0.16731  0.25000  1.0000
  C   C38       1.0  0.16732  0.83268  0.75000  1.0000
  N   N1        1.0  0.37540  0.86399  0.32426  1.0000
  N   N2        1.0  0.13602  0.62460  0.17574  1.0000
  N   N3        1.0  0.62460  0.13603  0.67573  1.0000
  N   N4        1.0  0.86398  0.37540  0.82427  1.0000
  N   N5        1.0  0.57310  0.69834  0.66503  1.0000
  N   N6        1.0  0.30166  0.42689  0.83497  1.0000
  N   N7        1.0  0.42688  0.30168  0.33495  1.0000
  N   N8        1.0  0.69832  0.57312  0.16505  1.0000
  N   N9        1.0  0.07906  0.92094  0.25000  1.0000
  N   N10       1.0  0.92094  0.07906  0.75000  1.0000
  N   N11       1.0  0.29139  0.85171  0.09387  1.0000
  N   N12       1.0  0.14829  0.70861  0.40613  1.0000
  N   N13       1.0  0.70860  0.14828  0.90613  1.0000
  N   N14       1.0  0.85172  0.29140  0.59387  1.0000
  O   O1        1.0  0.41967  0.58033  0.25002  1.0000
  O   O2        1.0  0.58033  0.41967  0.75000  1.0000
