data_image0
_chemical_formula_structural       Mo8H16C16N8O24
_chemical_formula_sum              "Mo8 H16 C16 N8 O24"
_cell_length_a       7.46814
_cell_length_b       7.67436
_cell_length_c       13.9016
_cell_angle_alpha    89.9968
_cell_angle_beta     90.0017
_cell_angle_gamma    90.0002

_space_group_name_H-M_alt    "P 1"
_space_group_IT_number       1

loop_
  _space_group_symop_operation_xyz
  'x, y, z'

loop_
  _atom_site_type_symbol
  _atom_site_label
  _atom_site_symmetry_multiplicity
  _atom_site_fract_x
  _atom_site_fract_y
  _atom_site_fract_z
  _atom_site_occupancy
  Mo  Mo1       1.0  0.91833  0.46777  0.27279  1.0000
  Mo  Mo2       1.0  0.91839  0.96772  0.22721  1.0000
  Mo  Mo3       1.0  0.58166  0.46776  0.77279  1.0000
  Mo  Mo4       1.0  0.41838  0.03227  0.27280  1.0000
  Mo  Mo5       1.0  0.08167  0.53222  0.72721  1.0000
  Mo  Mo6       1.0  0.08162  0.03228  0.77279  1.0000
  Mo  Mo7       1.0  0.41834  0.53225  0.22721  1.0000
  Mo  Mo8       1.0  0.58163  0.96772  0.72721  1.0000
  H   H1        1.0  0.13364  0.27004  0.09664  1.0000
  H   H2        1.0  0.13366  0.77007  0.40338  1.0000
  H   H3        1.0  0.36640  0.27005  0.59664  1.0000
  H   H4        1.0  0.63365  0.22996  0.09663  1.0000
  H   H5        1.0  0.86638  0.72997  0.90335  1.0000
  H   H6        1.0  0.86634  0.22994  0.59662  1.0000
  H   H7        1.0  0.63361  0.72994  0.40337  1.0000
  H   H8        1.0  0.36633  0.77004  0.90337  1.0000
  H   H9        1.0  0.78197  0.68796  0.07772  1.0000
  H   H10       1.0  0.78196  0.18794  0.42225  1.0000
  H   H11       1.0  0.71802  0.68796  0.57773  1.0000
  H   H12       1.0  0.28198  0.81205  0.07775  1.0000
  H   H13       1.0  0.21803  0.31204  0.92227  1.0000
  H   H14       1.0  0.21801  0.81207  0.57775  1.0000
  H   H15       1.0  0.28198  0.31204  0.42227  1.0000
  H   H16       1.0  0.71801  0.18796  0.92226  1.0000
  C   C1        1.0  0.07440  0.37307  0.05334  1.0000
  C   C2        1.0  0.07443  0.87309  0.44666  1.0000
  C   C3        1.0  0.42561  0.37308  0.55334  1.0000
  C   C4        1.0  0.57443  0.12692  0.05335  1.0000
  C   C5        1.0  0.92559  0.62693  0.94665  1.0000
  C   C6        1.0  0.92556  0.12691  0.55333  1.0000
  C   C7        1.0  0.57441  0.62691  0.44666  1.0000
  C   C8        1.0  0.42554  0.87308  0.94667  1.0000
  C   C9        1.0  0.88024  0.60468  0.04300  1.0000
  C   C10       1.0  0.88023  0.10467  0.45697  1.0000
  C   C11       1.0  0.61977  0.60468  0.54301  1.0000
  C   C12       1.0  0.38024  0.89533  0.04303  1.0000
  C   C13       1.0  0.11976  0.39532  0.95698  1.0000
  C   C14       1.0  0.11974  0.89533  0.54303  1.0000
  C   C15       1.0  0.38024  0.39532  0.45698  1.0000
  C   C16       1.0  0.61975  0.10468  0.95699  1.0000
  N   N1        1.0  0.95534  0.47855  0.09626  1.0000
  N   N2        1.0  0.95533  0.97854  0.40372  1.0000
  N   N3        1.0  0.54468  0.47854  0.59627  1.0000
  N   N4        1.0  0.45532  0.02147  0.09628  1.0000
  N   N5        1.0  0.04469  0.52147  0.90373  1.0000
  N   N6        1.0  0.04467  0.02147  0.59627  1.0000
  N   N7        1.0  0.45531  0.52147  0.40373  1.0000
  N   N8        1.0  0.54465  0.97855  0.90374  1.0000
  O   O1        1.0  0.93336  0.23773  0.25433  1.0000
  O   O2        1.0  0.93393  0.73771  0.24568  1.0000
  O   O3        1.0  0.56672  0.23772  0.75432  1.0000
  O   O4        1.0  0.43393  0.26228  0.25432  1.0000
  O   O5        1.0  0.06672  0.76227  0.74567  1.0000
  O   O6        1.0  0.06600  0.26229  0.75433  1.0000
  O   O7        1.0  0.43335  0.76229  0.24569  1.0000
  O   O8        1.0  0.56600  0.73770  0.74568  1.0000
  O   O9        1.0  0.68142  0.49909  0.24264  1.0000
  O   O10       1.0  0.68137  0.99854  0.25736  1.0000
  O   O11       1.0  0.81858  0.49915  0.74264  1.0000
  O   O12       1.0  0.18138  0.00146  0.24266  1.0000
  O   O13       1.0  0.31857  0.50085  0.75736  1.0000
  O   O14       1.0  0.31865  0.00152  0.74264  1.0000
  O   O15       1.0  0.18141  0.50090  0.25737  1.0000
  O   O16       1.0  0.81863  0.99847  0.75735  1.0000
  O   O17       1.0  0.91489  0.48581  0.39544  1.0000
  O   O18       1.0  0.91485  0.98582  0.10456  1.0000
  O   O19       1.0  0.58512  0.48580  0.89544  1.0000
  O   O20       1.0  0.41487  0.01419  0.39544  1.0000
  O   O21       1.0  0.08511  0.51418  0.60456  1.0000
  O   O22       1.0  0.08517  0.01419  0.89544  1.0000
  O   O23       1.0  0.41487  0.51419  0.10456  1.0000
  O   O24       1.0  0.58516  0.98579  0.60456  1.0000
