data_image0
_chemical_formula_structural       Cu2Mo2H10C4N2O8
_chemical_formula_sum              "Cu2 Mo2 H10 C4 N2 O8"
_cell_length_a       5.60659
_cell_length_b       6.80245
_cell_length_c       9.30082
_cell_angle_alpha    101.331
_cell_angle_beta     102.766
_cell_angle_gamma    114.379

_space_group_name_H-M_alt    "P 1"
_space_group_IT_number       1

loop_
  _space_group_symop_operation_xyz
  'x, y, z'

loop_
  _atom_site_type_symbol
  _atom_site_label
  _atom_site_symmetry_multiplicity
  _atom_site_fract_x
  _atom_site_fract_y
  _atom_site_fract_z
  _atom_site_occupancy
  Cu  Cu1       1.0  0.44814  0.88646  0.12267  1.0000
  Cu  Cu2       1.0  0.55185  0.11353  0.87734  1.0000
  Mo  Mo1       1.0  0.68359  0.66034  0.88068  1.0000
  Mo  Mo2       1.0  0.31644  0.33966  0.11934  1.0000
  H   H1        1.0  0.39898  0.12274  0.33831  1.0000
  H   H2        1.0  0.60103  0.87727  0.66169  1.0000
  H   H3        1.0  0.28720  0.67171  0.36966  1.0000
  H   H4        1.0  0.71279  0.32830  0.63034  1.0000
  H   H5        1.0  0.03886  0.76096  0.29974  1.0000
  H   H6        1.0  0.96114  0.23905  0.70027  1.0000
  H   H7        1.0  0.88455  0.22173  0.41759  1.0000
  H   H8        1.0  0.11542  0.77825  0.58242  1.0000
  H   H9        1.0  0.78863  0.94786  0.43844  1.0000
  H   H10       1.0  0.21137  0.05216  0.56157  1.0000
  C   C1        1.0  0.24642  0.81776  0.38169  1.0000
  C   C2        1.0  0.75362  0.18225  0.61828  1.0000
  C   C3        1.0  0.73681  0.08801  0.45055  1.0000
  C   C4        1.0  0.26313  0.91200  0.54942  1.0000
  N   N1        1.0  0.45379  0.99443  0.33978  1.0000
  N   N2        1.0  0.54623  0.00558  0.66022  1.0000
  O   O1        1.0  0.75300  0.69408  0.71060  1.0000
  O   O2        1.0  0.24701  0.30592  0.28939  1.0000
  O   O3        1.0  0.99830  0.76734  0.03098  1.0000
  O   O4        1.0  0.00172  0.23265  0.96903  1.0000
  O   O5        1.0  0.51442  0.18344  0.08636  1.0000
  O   O6        1.0  0.48557  0.81656  0.91365  1.0000
  O   O7        1.0  0.52441  0.64097  0.15549  1.0000
  O   O8        1.0  0.47559  0.35901  0.84451  1.0000
