data_image0
_chemical_formula_structural       Zn8Te8H48C16N8
_chemical_formula_sum              "Zn8 Te8 H48 C16 N8"
_cell_length_a       6.92308
_cell_length_b       6.97795
_cell_length_c       21.6535
_cell_angle_alpha    90.0002
_cell_angle_beta     89.9988
_cell_angle_gamma    89.9999

_space_group_name_H-M_alt    "P 1"
_space_group_IT_number       1

loop_
  _space_group_symop_operation_xyz
  'x, y, z'

loop_
  _atom_site_type_symbol
  _atom_site_label
  _atom_site_symmetry_multiplicity
  _atom_site_fract_x
  _atom_site_fract_y
  _atom_site_fract_z
  _atom_site_occupancy
  Zn  Zn1       1.0  0.78797  0.09302  0.70799  1.0000
  Zn  Zn2       1.0  0.21203  0.40698  0.20799  1.0000
  Zn  Zn3       1.0  0.28796  0.90701  0.79201  1.0000
  Zn  Zn4       1.0  0.71204  0.59300  0.29201  1.0000
  Zn  Zn5       1.0  0.21202  0.90696  0.29201  1.0000
  Zn  Zn6       1.0  0.78797  0.59303  0.79200  1.0000
  Zn  Zn7       1.0  0.71204  0.09300  0.20800  1.0000
  Zn  Zn8       1.0  0.28796  0.40700  0.70799  1.0000
  Te  Te1       1.0  0.16077  0.05458  0.68767  1.0000
  Te  Te2       1.0  0.83923  0.44542  0.18767  1.0000
  Te  Te3       1.0  0.66077  0.94545  0.81233  1.0000
  Te  Te4       1.0  0.33923  0.55454  0.31233  1.0000
  Te  Te5       1.0  0.83923  0.94541  0.31234  1.0000
  Te  Te6       1.0  0.16076  0.55459  0.81233  1.0000
  Te  Te7       1.0  0.33923  0.05455  0.18767  1.0000
  Te  Te8       1.0  0.66076  0.44544  0.68766  1.0000
  H   H1        1.0  0.50454  0.94246  0.65185  1.0000
  H   H2        1.0  0.49547  0.55755  0.15185  1.0000
  H   H3        1.0  0.00453  0.05758  0.84815  1.0000
  H   H4        1.0  0.99545  0.44244  0.34815  1.0000
  H   H5        1.0  0.49546  0.05752  0.34815  1.0000
  H   H6        1.0  0.50454  0.44247  0.84815  1.0000
  H   H7        1.0  0.99545  0.94244  0.15185  1.0000
  H   H8        1.0  0.00454  0.55755  0.65185  1.0000
  H   H9        1.0  0.68671  0.79911  0.63737  1.0000
  H   H10       1.0  0.31329  0.70088  0.13738  1.0000
  H   H11       1.0  0.18671  0.20092  0.86263  1.0000
  H   H12       1.0  0.81329  0.29908  0.36263  1.0000
  H   H13       1.0  0.31327  0.20086  0.36263  1.0000
  H   H14       1.0  0.68671  0.29912  0.86263  1.0000
  H   H15       1.0  0.81329  0.79908  0.13737  1.0000
  H   H16       1.0  0.18672  0.70090  0.63736  1.0000
  H   H17       1.0  0.63646  0.18033  0.57943  1.0000
  H   H18       1.0  0.36357  0.31967  0.07943  1.0000
  H   H19       1.0  0.13645  0.81970  0.92057  1.0000
  H   H20       1.0  0.86351  0.68031  0.42057  1.0000
  H   H21       1.0  0.36352  0.81964  0.42057  1.0000
  H   H22       1.0  0.63649  0.68036  0.92057  1.0000
  H   H23       1.0  0.86351  0.18033  0.07944  1.0000
  H   H24       1.0  0.13647  0.31967  0.57943  1.0000
  H   H25       1.0  0.80214  0.00138  0.55634  1.0000
  H   H26       1.0  0.19787  0.49861  0.05634  1.0000
  H   H27       1.0  0.30215  0.99864  0.94366  1.0000
  H   H28       1.0  0.69785  0.50134  0.44366  1.0000
  H   H29       1.0  0.19785  0.99859  0.44366  1.0000
  H   H30       1.0  0.80215  0.50139  0.94366  1.0000
  H   H31       1.0  0.69785  0.00138  0.05634  1.0000
  H   H32       1.0  0.30215  0.49862  0.55634  1.0000
  H   H33       1.0  0.53027  0.79185  0.52168  1.0000
  H   H34       1.0  0.46974  0.70815  0.02168  1.0000
  H   H35       1.0  0.03027  0.20816  0.97833  1.0000
  H   H36       1.0  0.96973  0.29185  0.47833  1.0000
  H   H37       1.0  0.46973  0.20811  0.47832  1.0000
  H   H38       1.0  0.53027  0.29188  0.97832  1.0000
  H   H39       1.0  0.96973  0.79188  0.02167  1.0000
  H   H40       1.0  0.03027  0.70812  0.52167  1.0000
  H   H41       1.0  0.36116  0.95446  0.55364  1.0000
  H   H42       1.0  0.63886  0.54554  0.05364  1.0000
  H   H43       1.0  0.86116  0.04555  0.94636  1.0000
  H   H44       1.0  0.13883  0.45446  0.44635  1.0000
  H   H45       1.0  0.63883  0.04549  0.44636  1.0000
  H   H46       1.0  0.36117  0.45452  0.94636  1.0000
  H   H47       1.0  0.13883  0.95450  0.05364  1.0000
  H   H48       1.0  0.86117  0.54551  0.55364  1.0000
  C   C1        1.0  0.65551  0.02425  0.57456  1.0000
  C   C2        1.0  0.34452  0.47575  0.07456  1.0000
  C   C3        1.0  0.15549  0.97577  0.92544  1.0000
  C   C4        1.0  0.84448  0.52422  0.42544  1.0000
  C   C5        1.0  0.34448  0.97572  0.42544  1.0000
  C   C6        1.0  0.65552  0.52426  0.92543  1.0000
  C   C7        1.0  0.84449  0.02424  0.07457  1.0000
  C   C8        1.0  0.15552  0.47575  0.57456  1.0000
  C   C9        1.0  0.50299  0.94527  0.53052  1.0000
  C   C10       1.0  0.49702  0.55473  0.03052  1.0000
  C   C11       1.0  0.00300  0.05475  0.96948  1.0000
  C   C12       1.0  0.99700  0.44526  0.46948  1.0000
  C   C13       1.0  0.49700  0.05470  0.46948  1.0000
  C   C14       1.0  0.50301  0.44531  0.96948  1.0000
  C   C15       1.0  0.99700  0.94530  0.03052  1.0000
  C   C16       1.0  0.00300  0.55471  0.53052  1.0000
  N   N1        1.0  0.64632  0.94120  0.63708  1.0000
  N   N2        1.0  0.35369  0.55881  0.13708  1.0000
  N   N3        1.0  0.14633  0.05884  0.86292  1.0000
  N   N4        1.0  0.85367  0.44118  0.36292  1.0000
  N   N5        1.0  0.35367  0.05877  0.36292  1.0000
  N   N6        1.0  0.64632  0.44123  0.86292  1.0000
  N   N7        1.0  0.85369  0.94120  0.13708  1.0000
  N   N8        1.0  0.14633  0.55882  0.63708  1.0000
