data_image0
_chemical_formula_structural       Zn4Te4H28C10N4
_chemical_formula_sum              "Zn4 Te4 H28 C10 N4"
_cell_length_a       6.82561
_cell_length_b       6.90854
_cell_length_c       13.1869
_cell_angle_alpha    105.157
_cell_angle_beta     89.9983
_cell_angle_gamma    90

_space_group_name_H-M_alt    "P 1"
_space_group_IT_number       1

loop_
  _space_group_symop_operation_xyz
  'x, y, z'

loop_
  _atom_site_type_symbol
  _atom_site_label
  _atom_site_symmetry_multiplicity
  _atom_site_fract_x
  _atom_site_fract_y
  _atom_site_fract_z
  _atom_site_occupancy
  Zn  Zn1       1.0  0.75874  0.63085  0.57139  1.0000
  Zn  Zn2       1.0  0.25875  0.36915  0.42861  1.0000
  Zn  Zn3       1.0  0.25867  0.94058  0.57145  1.0000
  Zn  Zn4       1.0  0.75869  0.05942  0.42856  1.0000
  Te  Te1       1.0  0.38046  0.60072  0.60742  1.0000
  Te  Te2       1.0  0.88047  0.39928  0.39258  1.0000
  Te  Te3       1.0  0.88035  0.00681  0.60740  1.0000
  Te  Te4       1.0  0.38037  0.99320  0.39261  1.0000
  H   H1        1.0  0.03715  0.57367  0.69414  1.0000
  H   H2        1.0  0.53716  0.42632  0.30586  1.0000
  H   H3        1.0  0.53687  0.12043  0.69421  1.0000
  H   H4        1.0  0.03690  0.87957  0.30579  1.0000
  H   H5        1.0  0.86834  0.40232  0.69340  1.0000
  H   H6        1.0  0.36835  0.59767  0.30660  1.0000
  H   H7        1.0  0.36851  0.29128  0.69310  1.0000
  H   H8        1.0  0.86854  0.70872  0.30690  1.0000
  H   H9        1.0  0.65622  0.64625  0.80491  1.0000
  H   H10       1.0  0.15624  0.35374  0.19510  1.0000
  H   H11       1.0  0.15565  0.16018  0.80481  1.0000
  H   H12       1.0  0.65568  0.83984  0.19520  1.0000
  H   H13       1.0  0.82839  0.83451  0.80102  1.0000
  H   H14       1.0  0.32841  0.16548  0.19898  1.0000
  H   H15       1.0  0.32698  0.96741  0.80119  1.0000
  H   H16       1.0  0.82701  0.03260  0.19881  1.0000
  H   H17       1.0  0.07351  0.67526  0.89625  1.0000
  H   H18       1.0  0.57353  0.32471  0.10374  1.0000
  H   H19       1.0  0.57309  0.22176  0.89596  1.0000
  H   H20       1.0  0.07311  0.77824  0.10402  1.0000
  H   H21       1.0  0.90386  0.48305  0.89916  1.0000
  H   H22       1.0  0.40388  0.51694  0.10084  1.0000
  H   H23       1.0  0.40314  0.41673  0.89917  1.0000
  H   H24       1.0  0.90315  0.58327  0.10083  1.0000
  H   H25       1.0  0.66704  0.74470  0.99993  1.0000
  H   H26       1.0  0.16704  0.25531  0.00008  1.0000
  H   H27       1.0  0.84085  0.93329  0.00016  1.0000
  H   H28       1.0  0.34084  0.06671  0.99984  1.0000
  C   C1        1.0  0.81438  0.67607  0.80211  1.0000
  C   C2        1.0  0.31440  0.32393  0.19789  1.0000
  C   C3        1.0  0.31369  0.12694  0.80210  1.0000
  C   C4        1.0  0.81372  0.87307  0.19790  1.0000
  C   C5        1.0  0.91571  0.64245  0.89928  1.0000
  C   C6        1.0  0.41572  0.35754  0.10072  1.0000
  C   C7        1.0  0.41524  0.25742  0.89916  1.0000
  C   C8        1.0  0.91525  0.74258  0.10083  1.0000
  C   C9        1.0  0.82615  0.77393  0.00004  1.0000
  C   C10       1.0  0.32615  0.22608  0.99996  1.0000
  N   N1        1.0  0.88832  0.55350  0.70088  1.0000
  N   N2        1.0  0.38834  0.44649  0.29912  1.0000
  N   N3        1.0  0.38810  0.14768  0.70082  1.0000
  N   N4        1.0  0.88813  0.85234  0.29918  1.0000
