data_image0
_chemical_formula_structural       Zn8Te8H48C16N8
_chemical_formula_sum              "Zn8 Te8 H48 C16 N8"
_cell_length_a       6.89852
_cell_length_b       6.98358
_cell_length_c       20.6447
_cell_angle_alpha    90.0005
_cell_angle_beta     90.0001
_cell_angle_gamma    89.999

_space_group_name_H-M_alt    "P 1"
_space_group_IT_number       1

loop_
  _space_group_symop_operation_xyz
  'x, y, z'

loop_
  _atom_site_type_symbol
  _atom_site_label
  _atom_site_symmetry_multiplicity
  _atom_site_fract_x
  _atom_site_fract_y
  _atom_site_fract_z
  _atom_site_occupancy
  Zn  Zn1       1.0  0.73974  0.09424  0.70713  1.0000
  Zn  Zn2       1.0  0.26025  0.40576  0.20713  1.0000
  Zn  Zn3       1.0  0.23975  0.90575  0.79286  1.0000
  Zn  Zn4       1.0  0.76026  0.59426  0.29287  1.0000
  Zn  Zn5       1.0  0.26026  0.90577  0.29287  1.0000
  Zn  Zn6       1.0  0.73974  0.59423  0.79287  1.0000
  Zn  Zn7       1.0  0.76026  0.09425  0.20713  1.0000
  Zn  Zn8       1.0  0.23973  0.40574  0.70713  1.0000
  Te  Te1       1.0  0.11567  0.05209  0.68390  1.0000
  Te  Te2       1.0  0.88433  0.44791  0.18390  1.0000
  Te  Te3       1.0  0.61567  0.94789  0.81610  1.0000
  Te  Te4       1.0  0.38433  0.55211  0.31610  1.0000
  Te  Te5       1.0  0.88434  0.94791  0.31610  1.0000
  Te  Te6       1.0  0.11566  0.55210  0.81610  1.0000
  Te  Te7       1.0  0.38434  0.05211  0.18390  1.0000
  Te  Te8       1.0  0.61565  0.44789  0.68390  1.0000
  H   H1        1.0  0.46674  0.99120  0.62901  1.0000
  H   H2        1.0  0.53328  0.50878  0.12902  1.0000
  H   H3        1.0  0.96675  0.00878  0.87098  1.0000
  H   H4        1.0  0.03323  0.49122  0.37099  1.0000
  H   H5        1.0  0.53329  0.00879  0.37098  1.0000
  H   H6        1.0  0.46672  0.49120  0.87098  1.0000
  H   H7        1.0  0.03331  0.99123  0.12902  1.0000
  H   H8        1.0  0.96671  0.50879  0.62902  1.0000
  H   H9        1.0  0.61238  0.80465  0.63595  1.0000
  H   H10       1.0  0.38763  0.69535  0.13595  1.0000
  H   H11       1.0  0.11237  0.19531  0.86405  1.0000
  H   H12       1.0  0.88762  0.30470  0.36405  1.0000
  H   H13       1.0  0.38763  0.19537  0.36405  1.0000
  H   H14       1.0  0.61236  0.30466  0.86405  1.0000
  H   H15       1.0  0.88764  0.80465  0.13594  1.0000
  H   H16       1.0  0.11236  0.69534  0.63595  1.0000
  H   H17       1.0  0.72695  0.15563  0.56609  1.0000
  H   H18       1.0  0.27306  0.34436  0.06609  1.0000
  H   H19       1.0  0.22691  0.84431  0.93390  1.0000
  H   H20       1.0  0.77305  0.65567  0.43391  1.0000
  H   H21       1.0  0.27308  0.84436  0.43391  1.0000
  H   H22       1.0  0.72691  0.65564  0.93391  1.0000
  H   H23       1.0  0.77318  0.15569  0.06609  1.0000
  H   H24       1.0  0.22692  0.34436  0.56609  1.0000
  H   H25       1.0  0.84859  0.93414  0.56657  1.0000
  H   H26       1.0  0.15143  0.56583  0.06658  1.0000
  H   H27       1.0  0.34861  0.06575  0.93342  1.0000
  H   H28       1.0  0.65139  0.43421  0.43342  1.0000
  H   H29       1.0  0.15146  0.06583  0.43343  1.0000
  H   H30       1.0  0.84855  0.43417  0.93343  1.0000
  H   H31       1.0  0.65145  0.93429  0.06657  1.0000
  H   H32       1.0  0.34852  0.56581  0.56657  1.0000
  H   H33       1.0  0.69030  0.96026  0.46333  1.0000
  H   H34       1.0  0.30972  0.53974  0.96334  1.0000
  H   H35       1.0  0.19033  0.03970  0.03666  1.0000
  H   H36       1.0  0.80966  0.46029  0.53667  1.0000
  H   H37       1.0  0.30977  0.03973  0.53666  1.0000
  H   H38       1.0  0.69027  0.46028  0.03667  1.0000
  H   H39       1.0  0.80977  0.96028  0.96334  1.0000
  H   H40       1.0  0.19020  0.53972  0.46334  1.0000
  H   H41       1.0  0.55679  0.78820  0.50739  1.0000
  H   H42       1.0  0.44323  0.71177  0.00740  1.0000
  H   H43       1.0  0.05683  0.21178  0.99260  1.0000
  H   H44       1.0  0.94316  0.28821  0.49261  1.0000
  H   H45       1.0  0.44326  0.21175  0.49261  1.0000
  H   H46       1.0  0.55676  0.28822  0.99262  1.0000
  H   H47       1.0  0.94324  0.78825  0.00740  1.0000
  H   H48       1.0  0.05673  0.71176  0.50740  1.0000
  C   C1        1.0  0.70379  0.99975  0.56603  1.0000
  C   C2        1.0  0.29622  0.50024  0.06602  1.0000
  C   C3        1.0  0.20378  0.00018  0.93395  1.0000
  C   C4        1.0  0.79620  0.49979  0.43396  1.0000
  C   C5        1.0  0.29623  0.00023  0.43400  1.0000
  C   C6        1.0  0.70375  0.49977  0.93397  1.0000
  C   C7        1.0  0.79626  0.99984  0.06600  1.0000
  C   C8        1.0  0.20377  0.50020  0.56602  1.0000
  C   C9        1.0  0.59250  0.94206  0.50526  1.0000
  C   C10       1.0  0.40747  0.55795  0.00527  1.0000
  C   C11       1.0  0.09253  0.05789  0.99473  1.0000
  C   C12       1.0  0.90745  0.44209  0.49473  1.0000
  C   C13       1.0  0.40750  0.05796  0.49473  1.0000
  C   C14       1.0  0.59251  0.44207  0.99473  1.0000
  C   C15       1.0  0.90750  0.94206  0.00526  1.0000
  C   C16       1.0  0.09252  0.55793  0.50527  1.0000
  N   N1        1.0  0.61027  0.95050  0.62801  1.0000
  N   N2        1.0  0.38972  0.54948  0.12802  1.0000
  N   N3        1.0  0.11027  0.04948  0.87199  1.0000
  N   N4        1.0  0.88974  0.45052  0.37200  1.0000
  N   N5        1.0  0.38972  0.04948  0.37198  1.0000
  N   N6        1.0  0.61025  0.45050  0.87200  1.0000
  N   N7        1.0  0.88974  0.95055  0.12802  1.0000
  N   N8        1.0  0.11026  0.54946  0.62801  1.0000
