data_image0
_chemical_formula_structural       CdH12C16N10O6
_chemical_formula_sum              "Cd1 H12 C16 N10 O6"
_cell_length_a       7.72948
_cell_length_b       7.45164
_cell_length_c       9.71437
_cell_angle_alpha    83.4506
_cell_angle_beta     65.7848
_cell_angle_gamma    80.4335

_space_group_name_H-M_alt    "P 1"
_space_group_IT_number       1

loop_
  _space_group_symop_operation_xyz
  'x, y, z'

loop_
  _atom_site_type_symbol
  _atom_site_label
  _atom_site_symmetry_multiplicity
  _atom_site_fract_x
  _atom_site_fract_y
  _atom_site_fract_z
  _atom_site_occupancy
  Cd  Cd1       1.0  0.50002  0.49999  0.50000  1.0000
  H   H1        1.0  0.68823  0.47381  0.96108  1.0000
  H   H2        1.0  0.31178  0.52620  0.03891  1.0000
  H   H3        1.0  0.59605  0.26067  0.02032  1.0000
  H   H4        1.0  0.40394  0.73935  0.97968  1.0000
  H   H5        1.0  0.63173  0.35495  0.83801  1.0000
  H   H6        1.0  0.36826  0.64507  0.16199  1.0000
  H   H7        1.0  0.18348  0.83783  0.76388  1.0000
  H   H8        1.0  0.81651  0.16219  0.23610  1.0000
  H   H9        1.0  0.43139  0.04417  0.71717  1.0000
  H   H10       1.0  0.56859  0.95584  0.28283  1.0000
  H   H11       1.0  0.01480  0.49197  0.85286  1.0000
  H   H12       1.0  0.98520  0.50803  0.14714  1.0000
  C   C1        1.0  0.25559  0.24076  0.43732  1.0000
  C   C2        1.0  0.74443  0.75921  0.56269  1.0000
  C   C3        1.0  0.93842  0.27055  0.46828  1.0000
  C   C4        1.0  0.06160  0.72940  0.53173  1.0000
  C   C5        1.0  0.69113  0.33929  0.92457  1.0000
  C   C6        1.0  0.30887  0.66073  0.07543  1.0000
  C   C7        1.0  0.89215  0.24451  0.86455  1.0000
  C   C8        1.0  0.10784  0.75549  0.13544  1.0000
  C   C9        1.0  0.94824  0.05787  0.83634  1.0000
  C   C10       1.0  0.05175  0.94214  0.16365  1.0000
  C   C11       1.0  0.14034  0.98169  0.78653  1.0000
  C   C12       1.0  0.85964  0.01831  0.21346  1.0000
  C   C13       1.0  0.27902  0.09147  0.75898  1.0000
  C   C14       1.0  0.72099  0.90855  0.24101  1.0000
  C   C15       1.0  0.03942  0.34673  0.83636  1.0000
  C   C16       1.0  0.96057  0.65329  0.16363  1.0000
  N   N1        1.0  0.41218  0.27448  0.40653  1.0000
  N   N2        1.0  0.58784  0.72551  0.59347  1.0000
  N   N3        1.0  0.09311  0.18402  0.47620  1.0000
  N   N4        1.0  0.90694  0.81594  0.52380  1.0000
  N   N5        1.0  0.78943  0.33322  0.46559  1.0000
  N   N6        1.0  0.21059  0.66672  0.53444  1.0000
  N   N7        1.0  0.80852  0.93768  0.85562  1.0000
  N   N8        1.0  0.19145  0.06235  0.14438  1.0000
  N   N9        1.0  0.22746  0.27353  0.78285  1.0000
  N   N10       1.0  0.77254  0.72647  0.21714  1.0000
  O   O1        1.0  0.85046  0.77161  0.88049  1.0000
  O   O2        1.0  0.14951  0.22840  0.11951  1.0000
  O   O3        1.0  0.65712  0.00532  0.84404  1.0000
  O   O4        1.0  0.34287  0.99470  0.15597  1.0000
  O   O5        1.0  0.35812  0.37880  0.75539  1.0000
  O   O6        1.0  0.64187  0.62121  0.24461  1.0000
