data_image0
_chemical_formula_structural       Cd4H32C16O24
_chemical_formula_sum              "Cd4 H32 C16 O24"
_cell_length_a       7.03447
_cell_length_b       6.94847
_cell_length_c       15.4491
_cell_angle_alpha    89.9999
_cell_angle_beta     89.9997
_cell_angle_gamma    111.538

_space_group_name_H-M_alt    "P 1"
_space_group_IT_number       1

loop_
  _space_group_symop_operation_xyz
  'x, y, z'

loop_
  _atom_site_type_symbol
  _atom_site_label
  _atom_site_symmetry_multiplicity
  _atom_site_fract_x
  _atom_site_fract_y
  _atom_site_fract_z
  _atom_site_occupancy
  Cd  Cd1       1.0  0.51173  0.91543  0.79982  1.0000
  Cd  Cd2       1.0  0.01174  0.41544  0.70018  1.0000
  Cd  Cd3       1.0  0.48827  0.08457  0.20018  1.0000
  Cd  Cd4       1.0  0.98827  0.58456  0.29982  1.0000
  H   H1        1.0  0.73763  0.70308  0.69887  1.0000
  H   H2        1.0  0.23763  0.20308  0.80114  1.0000
  H   H3        1.0  0.26237  0.29692  0.30113  1.0000
  H   H4        1.0  0.76237  0.79692  0.19887  1.0000
  H   H5        1.0  0.50006  0.57150  0.68465  1.0000
  H   H6        1.0  0.00006  0.07150  0.81535  1.0000
  H   H7        1.0  0.49994  0.42850  0.31535  1.0000
  H   H8        1.0  0.99994  0.92850  0.18465  1.0000
  H   H9        1.0  0.46733  0.22207  0.92436  1.0000
  H   H10       1.0  0.96733  0.72208  0.57565  1.0000
  H   H11       1.0  0.53267  0.77793  0.07564  1.0000
  H   H12       1.0  0.03267  0.27792  0.42435  1.0000
  H   H13       1.0  0.60530  0.33058  0.84456  1.0000
  H   H14       1.0  0.10530  0.83059  0.65544  1.0000
  H   H15       1.0  0.39469  0.66942  0.15544  1.0000
  H   H16       1.0  0.89469  0.16940  0.34456  1.0000
  H   H17       1.0  0.40266  0.29638  0.44730  1.0000
  H   H18       1.0  0.90265  0.79638  0.05269  1.0000
  H   H19       1.0  0.59735  0.70362  0.55270  1.0000
  H   H20       1.0  0.09735  0.20363  0.94730  1.0000
  H   H21       1.0  0.27688  0.06153  0.50013  1.0000
  H   H22       1.0  0.77686  0.56154  0.99987  1.0000
  H   H23       1.0  0.72313  0.93846  0.49986  1.0000
  H   H24       1.0  0.22314  0.43847  0.00013  1.0000
  H   H25       1.0  0.64886  0.41656  0.57585  1.0000
  H   H26       1.0  0.14885  0.91656  0.92415  1.0000
  H   H27       1.0  0.35115  0.58344  0.42415  1.0000
  H   H28       1.0  0.85115  0.08345  0.07585  1.0000
  H   H29       1.0  0.67135  0.21379  0.51638  1.0000
  H   H30       1.0  0.17133  0.71378  0.98362  1.0000
  H   H31       1.0  0.32866  0.78622  0.48362  1.0000
  H   H32       1.0  0.82867  0.28623  0.01638  1.0000
  C   C1        1.0  0.22782  0.31295  0.55845  1.0000
  C   C2        1.0  0.72781  0.81295  0.94155  1.0000
  C   C3        1.0  0.77218  0.68704  0.44155  1.0000
  C   C4        1.0  0.27218  0.18705  0.05845  1.0000
  C   C5        1.0  0.54085  0.12921  0.64095  1.0000
  C   C6        1.0  0.04084  0.62921  0.85905  1.0000
  C   C7        1.0  0.45916  0.87079  0.35905  1.0000
  C   C8        1.0  0.95916  0.37080  0.14095  1.0000
  C   C9        1.0  0.36807  0.22562  0.51183  1.0000
  C   C10       1.0  0.86807  0.72562  0.98817  1.0000
  C   C11       1.0  0.63193  0.77438  0.48817  1.0000
  C   C12       1.0  0.13193  0.27439  0.01183  1.0000
  C   C13       1.0  0.56608  0.25394  0.55886  1.0000
  C   C14       1.0  0.06607  0.75394  0.94114  1.0000
  C   C15       1.0  0.43393  0.74606  0.44114  1.0000
  C   C16       1.0  0.93393  0.24607  0.05886  1.0000
  O   O1        1.0  0.69443  0.17331  0.69328  1.0000
  O   O2        1.0  0.19442  0.67331  0.80672  1.0000
  O   O3        1.0  0.30557  0.82669  0.30673  1.0000
  O   O4        1.0  0.80558  0.32669  0.19328  1.0000
  O   O5        1.0  0.60092  0.66471  0.72539  1.0000
  O   O6        1.0  0.10092  0.16472  0.77461  1.0000
  O   O7        1.0  0.39908  0.33528  0.27461  1.0000
  O   O8        1.0  0.89908  0.83528  0.22539  1.0000
  O   O9        1.0  0.29272  0.41881  0.62783  1.0000
  O   O10       1.0  0.79272  0.91880  0.87217  1.0000
  O   O11       1.0  0.70728  0.58119  0.37217  1.0000
  O   O12       1.0  0.20728  0.08120  0.12783  1.0000
  O   O13       1.0  0.04993  0.27748  0.52929  1.0000
  O   O14       1.0  0.54993  0.77749  0.97071  1.0000
  O   O15       1.0  0.95007  0.72251  0.47071  1.0000
  O   O16       1.0  0.45007  0.22251  0.02929  1.0000
  O   O17       1.0  0.47536  0.21635  0.85887  1.0000
  O   O18       1.0  0.97537  0.71637  0.64113  1.0000
  O   O19       1.0  0.52463  0.78364  0.14113  1.0000
  O   O20       1.0  0.02463  0.28363  0.35887  1.0000
  O   O21       1.0  0.37591  0.98273  0.65883  1.0000
  O   O22       1.0  0.87590  0.48273  0.84117  1.0000
  O   O23       1.0  0.62410  0.01727  0.34117  1.0000
  O   O24       1.0  0.12410  0.51727  0.15883  1.0000
