data_image0
_chemical_formula_structural       Cd4H32C16O24
_chemical_formula_sum              "Cd4 H32 C16 O24"
_cell_length_a       7.69858
_cell_length_b       7.96337
_cell_length_c       12.2024
_cell_angle_alpha    90.0001
_cell_angle_beta     90.0006
_cell_angle_gamma    91.1102

_space_group_name_H-M_alt    "P 1"
_space_group_IT_number       1

loop_
  _space_group_symop_operation_xyz
  'x, y, z'

loop_
  _atom_site_type_symbol
  _atom_site_label
  _atom_site_symmetry_multiplicity
  _atom_site_fract_x
  _atom_site_fract_y
  _atom_site_fract_z
  _atom_site_occupancy
  Cd  Cd1       1.0  0.82227  0.91939  0.41340  1.0000
  Cd  Cd2       1.0  0.17773  0.58061  0.91341  1.0000
  Cd  Cd3       1.0  0.17773  0.08061  0.58659  1.0000
  Cd  Cd4       1.0  0.82227  0.41939  0.08659  1.0000
  H   H1        1.0  0.35790  0.52559  0.38302  1.0000
  H   H2        1.0  0.64210  0.97440  0.88302  1.0000
  H   H3        1.0  0.64210  0.47441  0.61698  1.0000
  H   H4        1.0  0.35791  0.02560  0.11697  1.0000
  H   H5        1.0  0.24247  0.71284  0.38470  1.0000
  H   H6        1.0  0.75753  0.78715  0.88469  1.0000
  H   H7        1.0  0.75753  0.28717  0.61530  1.0000
  H   H8        1.0  0.24248  0.21285  0.11531  1.0000
  H   H9        1.0  0.40913  0.56201  0.17826  1.0000
  H   H10       1.0  0.59085  0.93799  0.67825  1.0000
  H   H11       1.0  0.59086  0.43799  0.82174  1.0000
  H   H12       1.0  0.40915  0.06200  0.32174  1.0000
  H   H13       1.0  0.30710  0.75525  0.18130  1.0000
  H   H14       1.0  0.69289  0.74475  0.68129  1.0000
  H   H15       1.0  0.69290  0.24475  0.81870  1.0000
  H   H16       1.0  0.30711  0.25524  0.31871  1.0000
  H   H17       1.0  0.03478  0.67889  0.51062  1.0000
  H   H18       1.0  0.96522  0.82111  0.01061  1.0000
  H   H19       1.0  0.96522  0.32111  0.48938  1.0000
  H   H20       1.0  0.03478  0.17888  0.98939  1.0000
  H   H21       1.0  0.97755  0.60300  0.39539  1.0000
  H   H22       1.0  0.02244  0.89699  0.89538  1.0000
  H   H23       1.0  0.02245  0.39700  0.60461  1.0000
  H   H24       1.0  0.97755  0.10300  0.10462  1.0000
  H   H25       1.0  0.63419  0.20680  0.45257  1.0000
  H   H26       1.0  0.36582  0.29320  0.95257  1.0000
  H   H27       1.0  0.36582  0.79320  0.54743  1.0000
  H   H28       1.0  0.63418  0.70680  0.04743  1.0000
  H   H29       1.0  0.70249  0.22822  0.33030  1.0000
  H   H30       1.0  0.29751  0.27180  0.83030  1.0000
  H   H31       1.0  0.29751  0.77179  0.66970  1.0000
  H   H32       1.0  0.70249  0.72821  0.16970  1.0000
  C   C1        1.0  0.51314  0.74665  0.36992  1.0000
  C   C2        1.0  0.48686  0.75334  0.86991  1.0000
  C   C3        1.0  0.48686  0.25335  0.63009  1.0000
  C   C4        1.0  0.51314  0.24666  0.13010  1.0000
  C   C5        1.0  0.34865  0.64912  0.34284  1.0000
  C   C6        1.0  0.65134  0.85087  0.84284  1.0000
  C   C7        1.0  0.65134  0.35088  0.65716  1.0000
  C   C8        1.0  0.34866  0.14912  0.15716  1.0000
  C   C9        1.0  0.30855  0.63153  0.22165  1.0000
  C   C10       1.0  0.69144  0.86846  0.72164  1.0000
  C   C11       1.0  0.69145  0.36846  0.77835  1.0000
  C   C12       1.0  0.30856  0.13153  0.27836  1.0000
  C   C13       1.0  0.13409  0.54894  0.19706  1.0000
  C   C14       1.0  0.86591  0.95107  0.69706  1.0000
  C   C15       1.0  0.86591  0.45106  0.80294  1.0000
  C   C16       1.0  0.13410  0.04893  0.30294  1.0000
  O   O1        1.0  0.53596  0.79473  0.46864  1.0000
  O   O2        1.0  0.46405  0.70527  0.96863  1.0000
  O   O3        1.0  0.46404  0.20528  0.53136  1.0000
  O   O4        1.0  0.53596  0.29473  0.03137  1.0000
  O   O5        1.0  0.62651  0.78274  0.29628  1.0000
  O   O6        1.0  0.37349  0.71725  0.79627  1.0000
  O   O7        1.0  0.37349  0.21727  0.70372  1.0000
  O   O8        1.0  0.62651  0.28275  0.20373  1.0000
  O   O9        1.0  0.01908  0.52317  0.26889  1.0000
  O   O10       1.0  0.98091  0.97683  0.76889  1.0000
  O   O11       1.0  0.98093  0.47684  0.73111  1.0000
  O   O12       1.0  0.01909  0.02315  0.23111  1.0000
  O   O13       1.0  0.10833  0.50558  0.09622  1.0000
  O   O14       1.0  0.89166  0.99443  0.59621  1.0000
  O   O15       1.0  0.89167  0.49442  0.90378  1.0000
  O   O16       1.0  0.10834  0.00558  0.40378  1.0000
  O   O17       1.0  0.93394  0.66082  0.46256  1.0000
  O   O18       1.0  0.06606  0.83918  0.96255  1.0000
  O   O19       1.0  0.06606  0.33918  0.53744  1.0000
  O   O20       1.0  0.93394  0.16082  0.03745  1.0000
  O   O21       1.0  0.74140  0.19721  0.40530  1.0000
  O   O22       1.0  0.25860  0.30279  0.90531  1.0000
  O   O23       1.0  0.25860  0.80279  0.59469  1.0000
  O   O24       1.0  0.74140  0.69722  0.09470  1.0000
