data_image0
_chemical_formula_structural       Cu2H24C30N4Cl2O4
_chemical_formula_sum              "Cu2 H24 C30 N4 Cl2 O4"
_cell_length_a       7.01419
_cell_length_b       10.19
_cell_length_c       11.2128
_cell_angle_alpha    70.3576
_cell_angle_beta     77.566
_cell_angle_gamma    79.7647

_space_group_name_H-M_alt    "P 1"
_space_group_IT_number       1

loop_
  _space_group_symop_operation_xyz
  'x, y, z'

loop_
  _atom_site_type_symbol
  _atom_site_label
  _atom_site_symmetry_multiplicity
  _atom_site_fract_x
  _atom_site_fract_y
  _atom_site_fract_z
  _atom_site_occupancy
  Cu  Cu1       1.0  0.65834  0.35594  0.06406  1.0000
  Cu  Cu2       1.0  0.34167  0.64406  0.93594  1.0000
  H   H1        1.0  0.87864  0.54237  0.80158  1.0000
  H   H2        1.0  0.12137  0.45762  0.19841  1.0000
  H   H3        1.0  0.04821  0.49415  0.59802  1.0000
  H   H4        1.0  0.95179  0.50584  0.40198  1.0000
  H   H5        1.0  0.07633  0.25134  0.58135  1.0000
  H   H6        1.0  0.92368  0.74866  0.41865  1.0000
  H   H7        1.0  0.01114  0.99088  0.69902  1.0000
  H   H8        1.0  0.98887  0.00911  0.30100  1.0000
  H   H9        1.0  0.87327  0.81545  0.89305  1.0000
  H   H10       1.0  0.12674  0.18455  0.10696  1.0000
  H   H11       1.0  0.67414  0.75831  0.12327  1.0000
  H   H12       1.0  0.32586  0.24170  0.87674  1.0000
  H   H13       1.0  0.49644  0.84890  0.30460  1.0000
  H   H14       1.0  0.50353  0.15111  0.69540  1.0000
  H   H15       1.0  0.48734  0.10559  0.28009  1.0000
  H   H16       1.0  0.51267  0.89441  0.71991  1.0000
  H   H17       1.0  0.73803  0.30581  0.49864  1.0000
  H   H18       1.0  0.26196  0.69419  0.50136  1.0000
  H   H19       1.0  0.50216  0.26399  0.49883  1.0000
  H   H20       1.0  0.49783  0.73601  0.50116  1.0000
  H   H21       1.0  0.62566  0.55984  0.36795  1.0000
  H   H22       1.0  0.37433  0.44015  0.63206  1.0000
  H   H23       1.0  0.39080  0.50892  0.39130  1.0000
  H   H24       1.0  0.60919  0.49108  0.60870  1.0000
  C   C1        1.0  0.88845  0.43870  0.79110  1.0000
  C   C2        1.0  0.11156  0.56131  0.20890  1.0000
  C   C3        1.0  0.98464  0.40945  0.67720  1.0000
  C   C4        1.0  0.01538  0.59054  0.32280  1.0000
  C   C5        1.0  0.99967  0.27567  0.66845  1.0000
  C   C6        1.0  0.00033  0.72432  0.33155  1.0000
  C   C7        1.0  0.91814  0.16821  0.77513  1.0000
  C   C8        1.0  0.08186  0.83178  0.22487  1.0000
  C   C9        1.0  0.93336  0.02393  0.78136  1.0000
  C   C10       1.0  0.06665  0.97607  0.21864  1.0000
  C   C11       1.0  0.85642  0.92499  0.89017  1.0000
  C   C12       1.0  0.14358  0.07500  0.10985  1.0000
  C   C13       1.0  0.75390  0.96315  0.00111  1.0000
  C   C14       1.0  0.24611  0.03685  0.99889  1.0000
  C   C15       1.0  0.66601  0.86875  0.11603  1.0000
  C   C16       1.0  0.33399  0.13125  0.88397  1.0000
  C   C17       1.0  0.56898  0.91857  0.21619  1.0000
  C   C18       1.0  0.43101  0.08143  0.78381  1.0000
  C   C19       1.0  0.56153  0.06115  0.20399  1.0000
  C   C20       1.0  0.43848  0.93885  0.79601  1.0000
  C   C21       1.0  0.73742  0.10504  0.99702  1.0000
  C   C22       1.0  0.26259  0.89496  0.00298  1.0000
  C   C23       1.0  0.82169  0.20762  0.88474  1.0000
  C   C24       1.0  0.17832  0.79238  0.11526  1.0000
  C   C25       1.0  0.68833  0.31443  0.31419  1.0000
  C   C26       1.0  0.31166  0.68558  0.68580  1.0000
  C   C27       1.0  0.61419  0.33558  0.44552  1.0000
  C   C28       1.0  0.38579  0.66442  0.55448  1.0000
  C   C29       1.0  0.52378  0.48658  0.43513  1.0000
  C   C30       1.0  0.47621  0.51342  0.56487  1.0000
  N   N1        1.0  0.80787  0.33989  0.89153  1.0000
  N   N2        1.0  0.19214  0.66010  0.10847  1.0000
  N   N3        1.0  0.64487  0.15113  0.09739  1.0000
  N   N4        1.0  0.35513  0.84887  0.90262  1.0000
  Cl  Cl1       1.0  0.69954  0.58297  0.01773  1.0000
  Cl  Cl2       1.0  0.30048  0.41704  0.98227  1.0000
  O   O1        1.0  0.55124  0.34172  0.24448  1.0000
  O   O2        1.0  0.44875  0.65829  0.75551  1.0000
  O   O3        1.0  0.86550  0.27682  0.28075  1.0000
  O   O4        1.0  0.13448  0.72321  0.71924  1.0000
