data_image0
_chemical_formula_structural       Zn3H12C6O18
_chemical_formula_sum              "Zn3 H12 C6 O18"
_cell_length_a       7.10571
_cell_length_b       7.10552
_cell_length_c       9.73439
_cell_angle_alpha    89.9727
_cell_angle_beta     90.0274
_cell_angle_gamma    120.014

_space_group_name_H-M_alt    "P 1"
_space_group_IT_number       1

loop_
  _space_group_symop_operation_xyz
  'x, y, z'

loop_
  _atom_site_type_symbol
  _atom_site_label
  _atom_site_symmetry_multiplicity
  _atom_site_fract_x
  _atom_site_fract_y
  _atom_site_fract_z
  _atom_site_occupancy
  Zn  Zn1       1.0  0.62855  0.00013  0.33331  1.0000
  Zn  Zn2       1.0  0.00012  0.62853  0.66669  1.0000
  Zn  Zn3       1.0  0.37136  0.37136  0.00001  1.0000
  H   H1        1.0  0.28316  0.93241  0.18208  1.0000
  H   H2        1.0  0.06760  0.35115  0.51530  1.0000
  H   H3        1.0  0.64903  0.71615  0.84849  1.0000
  H   H4        1.0  0.35115  0.06758  0.48470  1.0000
  H   H5        1.0  0.71614  0.64902  0.15151  1.0000
  H   H6        1.0  0.93242  0.28318  0.81792  1.0000
  H   H7        1.0  0.28645  0.70763  0.17489  1.0000
  H   H8        1.0  0.29260  0.57922  0.50833  1.0000
  H   H9        1.0  0.42116  0.71332  0.84147  1.0000
  H   H10       1.0  0.57923  0.29260  0.49168  1.0000
  H   H11       1.0  0.71332  0.42116  0.15853  1.0000
  H   H12       1.0  0.70763  0.28646  0.82510  1.0000
  C   C1        1.0  0.92799  0.92797  0.50000  1.0000
  C   C2        1.0  0.07235  0.99979  0.83336  1.0000
  C   C3        1.0  0.99979  0.07235  0.16662  1.0000
  C   C4        1.0  0.70960  0.70960  0.50000  1.0000
  C   C5        1.0  0.29068  0.99992  0.83348  1.0000
  C   C6        1.0  0.99992  0.29071  0.16652  1.0000
  O   O1        1.0  0.54811  0.70890  0.44407  1.0000
  O   O2        1.0  0.29145  0.83931  0.77745  1.0000
  O   O3        1.0  0.16066  0.45204  0.11046  1.0000
  O   O4        1.0  0.83929  0.29144  0.22256  1.0000
  O   O5        1.0  0.45205  0.16066  0.88953  1.0000
  O   O6        1.0  0.70891  0.54810  0.55592  1.0000
  O   O7        1.0  0.92028  0.09481  0.46349  1.0000
  O   O8        1.0  0.90549  0.82521  0.79695  1.0000
  O   O9        1.0  0.17427  0.07991  0.13029  1.0000
  O   O10       1.0  0.82520  0.90551  0.20304  1.0000
  O   O11       1.0  0.07994  0.17429  0.86971  1.0000
  O   O12       1.0  0.09484  0.92027  0.53649  1.0000
  O   O13       1.0  0.36478  0.85874  0.21030  1.0000
  O   O14       1.0  0.14130  0.50648  0.54344  1.0000
  O   O15       1.0  0.49362  0.63437  0.87641  1.0000
  O   O16       1.0  0.50649  0.14128  0.45659  1.0000
  O   O17       1.0  0.63436  0.49361  0.12360  1.0000
  O   O18       1.0  0.85874  0.36479  0.78971  1.0000
