data_image0
_chemical_formula_structural       Cu3H24C24N4O14
_chemical_formula_sum              "Cu3 H24 C24 N4 O14"
_cell_length_a       6.39217
_cell_length_b       10.7034
_cell_length_c       11.8822
_cell_angle_alpha    69.4486
_cell_angle_beta     74.2274
_cell_angle_gamma    81.0832

_space_group_name_H-M_alt    "P 1"
_space_group_IT_number       1

loop_
  _space_group_symop_operation_xyz
  'x, y, z'

loop_
  _atom_site_type_symbol
  _atom_site_label
  _atom_site_symmetry_multiplicity
  _atom_site_fract_x
  _atom_site_fract_y
  _atom_site_fract_z
  _atom_site_occupancy
  Cu  Cu1       1.0  0.00099  0.00159  0.49945  1.0000
  Cu  Cu2       1.0  0.92088  0.30298  0.41971  1.0000
  Cu  Cu3       1.0  0.07864  0.69654  0.58017  1.0000
  H   H1        1.0  0.40653  0.15834  0.40750  1.0000
  H   H2        1.0  0.59298  0.84082  0.59320  1.0000
  H   H3        1.0  0.32260  0.13639  0.54837  1.0000
  H   H4        1.0  0.67809  0.86287  0.45249  1.0000
  H   H5        1.0  0.60259  0.50944  0.37692  1.0000
  H   H6        1.0  0.39719  0.49084  0.62292  1.0000
  H   H7        1.0  0.49361  0.37573  0.46633  1.0000
  H   H8        1.0  0.50686  0.62428  0.53337  1.0000
  H   H9        1.0  0.66150  0.12864  0.56209  1.0000
  H   H10       1.0  0.33956  0.87079  0.43803  1.0000
  H   H11       1.0  0.15214  0.39596  0.03624  1.0000
  H   H12       1.0  0.84816  0.60423  0.96364  1.0000
  H   H13       1.0  0.27106  0.42166  0.81274  1.0000
  H   H14       1.0  0.72927  0.57849  0.18705  1.0000
  H   H15       1.0  0.28228  0.99582  0.90038  1.0000
  H   H16       1.0  0.71745  0.00429  0.09968  1.0000
  H   H17       1.0  0.16092  0.97113  0.12650  1.0000
  H   H18       1.0  0.83846  0.02915  0.87363  1.0000
  H   H19       1.0  0.23790  0.83107  0.28327  1.0000
  H   H20       1.0  0.76216  0.16837  0.71765  1.0000
  H   H21       1.0  0.29026  0.73557  0.10781  1.0000
  H   H22       1.0  0.70947  0.26467  0.89248  1.0000
  H   H23       1.0  0.17839  0.49793  0.16615  1.0000
  H   H24       1.0  0.82127  0.50245  0.83349  1.0000
  C   C1        1.0  0.08428  0.16725  0.23149  1.0000
  C   C2        1.0  0.91615  0.83350  0.76824  1.0000
  C   C3        1.0  0.15206  0.18143  0.09589  1.0000
  C   C4        1.0  0.84785  0.81896  0.90392  1.0000
  C   C5        1.0  0.18177  0.30839  0.00615  1.0000
  C   C6        1.0  0.81848  0.69191  0.99361  1.0000
  C   C7        1.0  0.24651  0.32243  0.88091  1.0000
  C   C8        1.0  0.75364  0.67776  0.11890  1.0000
  C   C9        1.0  0.28222  0.20926  0.84250  1.0000
  C   C10       1.0  0.71775  0.79080  0.15751  1.0000
  C   C11       1.0  0.25326  0.08253  0.93184  1.0000
  C   C12       1.0  0.74662  0.91756  0.06821  1.0000
  C   C13       1.0  0.18799  0.06898  0.05706  1.0000
  C   C14       1.0  0.81170  0.93122  0.94297  1.0000
  C   C15       1.0  0.35162  0.22093  0.70763  1.0000
  C   C16       1.0  0.64850  0.77900  0.29241  1.0000
  C   C17       1.0  0.05067  0.53707  0.43658  1.0000
  C   C18       1.0  0.94928  0.46220  0.56346  1.0000
  C   C19       1.0  0.19640  0.73031  0.29871  1.0000
  C   C20       1.0  0.80360  0.26923  0.70179  1.0000
  C   C21       1.0  0.22269  0.67761  0.20339  1.0000
  C   C22       1.0  0.77700  0.32241  0.79682  1.0000
  C   C23       1.0  0.16071  0.54832  0.23381  1.0000
  C   C24       1.0  0.83894  0.45176  0.76606  1.0000
  N   N1        1.0  0.11488  0.65762  0.41646  1.0000
  N   N2        1.0  0.88549  0.34144  0.58387  1.0000
  N   N3        1.0  0.06979  0.47903  0.35098  1.0000
  N   N4        1.0  0.92970  0.52076  0.64879  1.0000
  O   O1        1.0  0.08306  0.04981  0.30868  1.0000
  O   O2        1.0  0.91738  0.95101  0.69110  1.0000
  O   O3        1.0  0.03730  0.27750  0.25500  1.0000
  O   O4        1.0  0.96401  0.72325  0.74470  1.0000
  O   O5        1.0  0.35524  0.33761  0.62727  1.0000
  O   O6        1.0  0.64481  0.66224  0.37271  1.0000
  O   O7        1.0  0.40501  0.11314  0.68146  1.0000
  O   O8        1.0  0.59528  0.88667  0.31873  1.0000
  O   O9        1.0  0.27222  0.15686  0.47093  1.0000
  O   O10       1.0  0.72770  0.84182  0.53016  1.0000
  O   O11       1.0  0.58854  0.41576  0.38318  1.0000
  O   O12       1.0  0.41180  0.58446  0.61656  1.0000
  O   O13       1.0  0.77476  0.14057  0.48422  1.0000
  O   O14       1.0  0.22213  0.85959  0.51412  1.0000
