data_image0
_chemical_formula_structural       Mn2H22C24N4O12
_chemical_formula_sum              "Mn2 H22 C24 N4 O12"
_cell_length_a       6.22379
_cell_length_b       10.6506
_cell_length_c       10.6508
_cell_angle_alpha    94.6283
_cell_angle_beta     107.487
_cell_angle_gamma    107.487

_space_group_name_H-M_alt    "P 1"
_space_group_IT_number       1

loop_
  _space_group_symop_operation_xyz
  'x, y, z'

loop_
  _atom_site_type_symbol
  _atom_site_label
  _atom_site_symmetry_multiplicity
  _atom_site_fract_x
  _atom_site_fract_y
  _atom_site_fract_z
  _atom_site_occupancy
  Mn  Mn1       1.0  0.99999  0.80377  0.19623  1.0000
  Mn  Mn2       1.0  0.00000  0.19622  0.80377  1.0000
  H   H1        1.0  0.45735  0.93184  0.37101  1.0000
  H   H2        1.0  0.54264  0.62898  0.06816  1.0000
  H   H3        1.0  0.54265  0.06817  0.62899  1.0000
  H   H4        1.0  0.45735  0.37101  0.93184  1.0000
  H   H5        1.0  0.29547  0.01180  0.40549  1.0000
  H   H6        1.0  0.70453  0.59450  0.98820  1.0000
  H   H7        1.0  0.70452  0.98820  0.59450  1.0000
  H   H8        1.0  0.29547  0.40549  0.01180  1.0000
  H   H9        1.0  0.07082  0.66310  0.50295  1.0000
  H   H10       1.0  0.92921  0.49706  0.33691  1.0000
  H   H11       1.0  0.92922  0.33692  0.49707  1.0000
  H   H12       1.0  0.07081  0.50295  0.66310  1.0000
  H   H13       1.0  0.53384  0.77325  0.61358  1.0000
  H   H14       1.0  0.46615  0.38641  0.22675  1.0000
  H   H15       1.0  0.46615  0.22675  0.38641  1.0000
  H   H16       1.0  0.53383  0.61359  0.77324  1.0000
  H   H17       1.0  0.71967  0.99957  0.27695  1.0000
  H   H18       1.0  0.28032  0.72304  0.00044  1.0000
  H   H19       1.0  0.28032  0.00042  0.72304  1.0000
  H   H20       1.0  0.71969  0.27696  0.99956  1.0000
  H   H21       1.0  0.58919  0.19040  0.19039  1.0000
  H   H22       1.0  0.41081  0.80960  0.80962  1.0000
  C   C1        1.0  0.78015  0.81007  0.44001  1.0000
  C   C2        1.0  0.21984  0.56000  0.18993  1.0000
  C   C3        1.0  0.21986  0.18994  0.55999  1.0000
  C   C4        1.0  0.78016  0.44000  0.81007  1.0000
  C   C5        1.0  0.79849  0.72552  0.54619  1.0000
  C   C6        1.0  0.20152  0.45382  0.27448  1.0000
  C   C7        1.0  0.20152  0.27449  0.45382  1.0000
  C   C8        1.0  0.79848  0.54618  0.72552  1.0000
  C   C9        1.0  0.95330  0.65117  0.56238  1.0000
  C   C10       1.0  0.04672  0.43763  0.34883  1.0000
  C   C11       1.0  0.04672  0.34884  0.43763  1.0000
  C   C12       1.0  0.95330  0.56238  0.65117  1.0000
  C   C13       1.0  0.65159  0.71396  0.62506  1.0000
  C   C14       1.0  0.34841  0.37495  0.28604  1.0000
  C   C15       1.0  0.34841  0.28604  0.37494  1.0000
  C   C16       1.0  0.65159  0.62505  0.71396  1.0000
  C   C17       1.0  0.75810  0.03976  0.19189  1.0000
  C   C18       1.0  0.24190  0.80811  0.96026  1.0000
  C   C19       1.0  0.24190  0.96024  0.80811  1.0000
  C   C20       1.0  0.75810  0.19189  0.03974  1.0000
  C   C21       1.0  0.93359  0.03178  0.03178  1.0000
  C   C22       1.0  0.06639  0.96821  0.96822  1.0000
  C   C23       1.0  0.68971  0.14512  0.14511  1.0000
  C   C24       1.0  0.31030  0.85488  0.85489  1.0000
  N   N1        1.0  0.87927  0.98249  0.13460  1.0000
  N   N2        1.0  0.12071  0.86540  0.01751  1.0000
  N   N3        1.0  0.12071  0.01750  0.86540  1.0000
  N   N4        1.0  0.87928  0.13460  0.98249  1.0000
  O   O1        1.0  0.82659  0.77353  0.33754  1.0000
  O   O2        1.0  0.17341  0.66247  0.22646  1.0000
  O   O3        1.0  0.17343  0.22647  0.66247  1.0000
  O   O4        1.0  0.82660  0.33754  0.77354  1.0000
  O   O5        1.0  0.71339  0.91070  0.45609  1.0000
  O   O6        1.0  0.28660  0.54391  0.08929  1.0000
  O   O7        1.0  0.28660  0.08930  0.54391  1.0000
  O   O8        1.0  0.71340  0.45609  0.91071  1.0000
  O   O9        1.0  0.31705  0.95997  0.32985  1.0000
  O   O10       1.0  0.68294  0.67014  0.04002  1.0000
  O   O11       1.0  0.68295  0.04003  0.67015  1.0000
  O   O12       1.0  0.31706  0.32985  0.95997  1.0000
