data_image0
_chemical_formula_structural       Hg4H28C32S4N4Cl8
_chemical_formula_sum              "Hg4 H28 C32 S4 N4 Cl8"
_cell_length_a       7.26833
_cell_length_b       9.7683
_cell_length_c       14.6967
_cell_angle_alpha    89.9998
_cell_angle_beta     95.2382
_cell_angle_gamma    90.0006

_space_group_name_H-M_alt    "P 1"
_space_group_IT_number       1

loop_
  _space_group_symop_operation_xyz
  'x, y, z'

loop_
  _atom_site_type_symbol
  _atom_site_label
  _atom_site_symmetry_multiplicity
  _atom_site_fract_x
  _atom_site_fract_y
  _atom_site_fract_z
  _atom_site_occupancy
  Hg  Hg1       1.0  0.25002  0.06467  0.01499  1.0000
  Hg  Hg2       1.0  0.75002  0.43534  0.51500  1.0000
  Hg  Hg3       1.0  0.74997  0.93533  0.98501  1.0000
  Hg  Hg4       1.0  0.24998  0.56467  0.48501  1.0000
  H   H1        1.0  0.36524  0.34149  0.26049  1.0000
  H   H2        1.0  0.86523  0.15851  0.76049  1.0000
  H   H3        1.0  0.63477  0.65851  0.73951  1.0000
  H   H4        1.0  0.13476  0.84149  0.23951  1.0000
  H   H5        1.0  0.41831  0.19198  0.19757  1.0000
  H   H6        1.0  0.91830  0.30803  0.69758  1.0000
  H   H7        1.0  0.58170  0.80802  0.80242  1.0000
  H   H8        1.0  0.08169  0.69197  0.30243  1.0000
  H   H9        1.0  0.18638  0.22752  0.21764  1.0000
  H   H10       1.0  0.68637  0.27247  0.71762  1.0000
  H   H11       1.0  0.81363  0.77247  0.78237  1.0000
  H   H12       1.0  0.31362  0.72752  0.28237  1.0000
  H   H13       1.0  0.24086  0.73927  0.95632  1.0000
  H   H14       1.0  0.74085  0.76073  0.45631  1.0000
  H   H15       1.0  0.75915  0.26072  0.04368  1.0000
  H   H16       1.0  0.25914  0.23927  0.54368  1.0000
  H   H17       1.0  0.17175  0.68638  0.79117  1.0000
  H   H18       1.0  0.67175  0.81363  0.29116  1.0000
  H   H19       1.0  0.82825  0.31362  0.20884  1.0000
  H   H20       1.0  0.32826  0.18638  0.70883  1.0000
  H   H21       1.0  0.14802  0.44803  0.73689  1.0000
  H   H22       1.0  0.64803  0.05198  0.23688  1.0000
  H   H23       1.0  0.85196  0.55197  0.26311  1.0000
  H   H24       1.0  0.35197  0.94803  0.76312  1.0000
  H   H25       1.0  0.18024  0.25208  0.84788  1.0000
  H   H26       1.0  0.68025  0.24793  0.34788  1.0000
  H   H27       1.0  0.81975  0.74791  0.15212  1.0000
  H   H28       1.0  0.31975  0.75208  0.65212  1.0000
  C   C1        1.0  0.29131  0.35153  0.11585  1.0000
  C   C2        1.0  0.79132  0.14847  0.61585  1.0000
  C   C3        1.0  0.70869  0.64846  0.88415  1.0000
  C   C4        1.0  0.20868  0.85153  0.38415  1.0000
  C   C5        1.0  0.31784  0.27489  0.20309  1.0000
  C   C6        1.0  0.81784  0.22511  0.70309  1.0000
  C   C7        1.0  0.68216  0.72510  0.79691  1.0000
  C   C8        1.0  0.18216  0.77489  0.29691  1.0000
  C   C9        1.0  0.23314  0.38724  0.96386  1.0000
  C   C10       1.0  0.73314  0.11276  0.46386  1.0000
  C   C11       1.0  0.76686  0.61275  0.03614  1.0000
  C   C12       1.0  0.26686  0.88724  0.53614  1.0000
  C   C13       1.0  0.25113  0.52464  0.99415  1.0000
  C   C14       1.0  0.75113  0.97537  0.49415  1.0000
  C   C15       1.0  0.74888  0.47535  0.00585  1.0000
  C   C16       1.0  0.24887  0.02464  0.50585  1.0000
  C   C17       1.0  0.22933  0.63388  0.93266  1.0000
  C   C18       1.0  0.72933  0.86613  0.43265  1.0000
  C   C19       1.0  0.77067  0.36612  0.06734  1.0000
  C   C20       1.0  0.27067  0.13388  0.56734  1.0000
  C   C21       1.0  0.19142  0.60313  0.84042  1.0000
  C   C22       1.0  0.69141  0.89688  0.34042  1.0000
  C   C23       1.0  0.80858  0.39686  0.15958  1.0000
  C   C24       1.0  0.30859  0.10313  0.65958  1.0000
  C   C25       1.0  0.17560  0.46694  0.80983  1.0000
  C   C26       1.0  0.67561  0.03307  0.30983  1.0000
  C   C27       1.0  0.82440  0.53306  0.19017  1.0000
  C   C28       1.0  0.32440  0.96694  0.69018  1.0000
  C   C29       1.0  0.19502  0.35802  0.87076  1.0000
  C   C30       1.0  0.69503  0.14199  0.37076  1.0000
  C   C31       1.0  0.80497  0.64198  0.12924  1.0000
  C   C32       1.0  0.30497  0.85801  0.62924  1.0000
  S   S1        1.0  0.29971  0.52771  0.11195  1.0000
  S   S2        1.0  0.79971  0.97229  0.61195  1.0000
  S   S3        1.0  0.70030  0.47229  0.88805  1.0000
  S   S4        1.0  0.20028  0.02771  0.38805  1.0000
  N   N1        1.0  0.25688  0.29338  0.03492  1.0000
  N   N2        1.0  0.75690  0.20662  0.53492  1.0000
  N   N3        1.0  0.74311  0.70661  0.96508  1.0000
  N   N4        1.0  0.24311  0.79338  0.46508  1.0000
  Cl  Cl1       1.0  0.44013  0.88593  0.09777  1.0000
  Cl  Cl2       1.0  0.94013  0.61407  0.59777  1.0000
  Cl  Cl3       1.0  0.55987  0.11407  0.90223  1.0000
  Cl  Cl4       1.0  0.05987  0.38593  0.40223  1.0000
  Cl  Cl5       1.0  0.04887  0.97471  0.87711  1.0000
  Cl  Cl6       1.0  0.54888  0.52529  0.37712  1.0000
  Cl  Cl7       1.0  0.95113  0.02528  0.12288  1.0000
  Cl  Cl8       1.0  0.45113  0.47471  0.62289  1.0000
