data_image0
_chemical_formula_structural       Zn2H32C42N8O10
_chemical_formula_sum              "Zn2 H32 C42 N8 O10"
_cell_length_a       10.2319
_cell_length_b       10.1144
_cell_length_c       10.947
_cell_angle_alpha    105.816
_cell_angle_beta     102.656
_cell_angle_gamma    107.091

_space_group_name_H-M_alt    "P 1"
_space_group_IT_number       1

loop_
  _space_group_symop_operation_xyz
  'x, y, z'

loop_
  _atom_site_type_symbol
  _atom_site_label
  _atom_site_symmetry_multiplicity
  _atom_site_fract_x
  _atom_site_fract_y
  _atom_site_fract_z
  _atom_site_occupancy
  Zn  Zn1       1.0  0.59865  0.27409  0.16213  1.0000
  Zn  Zn2       1.0  0.40135  0.72591  0.83787  1.0000
  H   H1        1.0  0.11625  0.32304  0.18900  1.0000
  H   H2        1.0  0.88376  0.67696  0.81100  1.0000
  H   H3        1.0  0.20471  0.92694  0.14816  1.0000
  H   H4        1.0  0.79529  0.07306  0.85184  1.0000
  H   H5        1.0  0.78892  0.92986  0.17175  1.0000
  H   H6        1.0  0.21108  0.07014  0.82825  1.0000
  H   H7        1.0  0.12748  0.72268  0.20110  1.0000
  H   H8        1.0  0.87252  0.27732  0.79891  1.0000
  H   H9        1.0  0.05000  0.68232  0.02473  1.0000
  H   H10       1.0  0.95001  0.31768  0.97527  1.0000
  H   H11       1.0  0.96212  0.56683  0.10489  1.0000
  H   H12       1.0  0.03788  0.43317  0.89511  1.0000
  H   H13       1.0  0.07809  0.78666  0.44067  1.0000
  H   H14       1.0  0.92191  0.21335  0.55933  1.0000
  H   H15       1.0  0.74844  0.95796  0.49993  1.0000
  H   H16       1.0  0.25156  0.04204  0.50007  1.0000
  H   H17       1.0  0.86147  0.59176  0.26707  1.0000
  H   H18       1.0  0.13853  0.40824  0.73292  1.0000
  H   H19       1.0  0.52039  0.44069  0.41236  1.0000
  H   H20       1.0  0.47962  0.55931  0.58764  1.0000
  H   H21       1.0  0.67912  0.74282  0.56373  1.0000
  H   H22       1.0  0.32089  0.25719  0.43627  1.0000
  H   H23       1.0  0.65638  0.26561  0.56957  1.0000
  H   H24       1.0  0.34361  0.73438  0.43043  1.0000
  H   H25       1.0  0.39238  0.90740  0.65801  1.0000
  H   H26       1.0  0.60762  0.09259  0.34199  1.0000
  H   H27       1.0  0.53254  0.04543  0.86867  1.0000
  H   H28       1.0  0.46746  0.95457  0.13133  1.0000
  H   H29       1.0  0.63752  0.50976  0.00309  1.0000
  H   H30       1.0  0.36246  0.49023  0.99691  1.0000
  H   H31       1.0  0.60401  0.41089  0.73600  1.0000
  H   H32       1.0  0.39598  0.58910  0.26400  1.0000
  C   C1        1.0  0.94395  0.13648  0.18602  1.0000
  C   C2        1.0  0.05606  0.86352  0.81398  1.0000
  C   C3        1.0  0.08259  0.20869  0.18394  1.0000
  C   C4        1.0  0.91741  0.79131  0.81607  1.0000
  C   C5        1.0  0.17556  0.13281  0.17075  1.0000
  C   C6        1.0  0.82445  0.86719  0.82926  1.0000
  C   C7        1.0  0.13096  0.98414  0.16058  1.0000
  C   C8        1.0  0.86904  0.01586  0.83942  1.0000
  C   C9        1.0  0.99167  0.91133  0.16089  1.0000
  C   C10       1.0  0.00833  0.08867  0.83911  1.0000
  C   C11       1.0  0.89832  0.98784  0.17461  1.0000
  C   C12       1.0  0.10169  0.01216  0.82539  1.0000
  C   C13       1.0  0.84373  0.21922  0.18945  1.0000
  C   C14       1.0  0.15627  0.78078  0.81055  1.0000
  C   C15       1.0  0.32102  0.21147  0.16288  1.0000
  C   C16       1.0  0.67898  0.78853  0.83713  1.0000
  C   C17       1.0  0.02550  0.68066  0.11745  1.0000
  C   C18       1.0  0.97450  0.31934  0.88255  1.0000
  C   C19       1.0  0.90266  0.85711  0.46635  1.0000
  C   C20       1.0  0.09734  0.14290  0.53365  1.0000
  C   C21       1.0  0.04354  0.87991  0.46508  1.0000
  C   C22       1.0  0.95646  0.12009  0.53491  1.0000
  C   C23       1.0  0.85917  0.97677  0.50171  1.0000
  C   C24       1.0  0.14083  0.02324  0.49829  1.0000
  C   C25       1.0  0.79031  0.58985  0.32699  1.0000
  C   C26       1.0  0.20969  0.41015  0.67301  1.0000
  C   C27       1.0  0.61533  0.51787  0.40635  1.0000
  C   C28       1.0  0.38468  0.48213  0.59365  1.0000
  C   C29       1.0  0.68990  0.66624  0.47922  1.0000
  C   C30       1.0  0.31011  0.33376  0.52078  1.0000
  C   C31       1.0  0.52920  0.09762  0.62969  1.0000
  C   C32       1.0  0.47080  0.90237  0.37031  1.0000
  C   C33       1.0  0.58657  0.14956  0.53911  1.0000
  C   C34       1.0  0.41343  0.85043  0.46089  1.0000
  C   C35       1.0  0.44212  0.94748  0.58997  1.0000
  C   C36       1.0  0.55787  0.05252  0.41003  1.0000
  C   C37       1.0  0.55201  0.15728  0.87043  1.0000
  C   C38       1.0  0.44799  0.84272  0.12957  1.0000
  C   C39       1.0  0.60957  0.39744  0.93608  1.0000
  C   C40       1.0  0.39042  0.60255  0.06391  1.0000
  C   C41       1.0  0.59477  0.34952  0.80247  1.0000
  C   C42       1.0  0.40523  0.65048  0.19752  1.0000
  N   N1        1.0  0.80080  0.71070  0.42762  1.0000
  N   N2        1.0  0.19920  0.28931  0.57238  1.0000
  N   N3        1.0  0.67863  0.47227  0.31215  1.0000
  N   N4        1.0  0.32137  0.52774  0.68785  1.0000
  N   N5        1.0  0.55748  0.19657  0.76108  1.0000
  N   N6        1.0  0.44251  0.80343  0.23892  1.0000
  N   N7        1.0  0.58259  0.27669  0.97682  1.0000
  N   N8        1.0  0.41741  0.72331  0.02318  1.0000
  O   O1        1.0  0.71596  0.15041  0.19309  1.0000
  O   O2        1.0  0.28404  0.84959  0.80690  1.0000
  O   O3        1.0  0.88354  0.34697  0.18446  1.0000
  O   O4        1.0  0.11645  0.65303  0.81554  1.0000
  O   O5        1.0  0.34806  0.33236  0.14528  1.0000
  O   O6        1.0  0.65195  0.66764  0.85473  1.0000
  O   O7        1.0  0.41512  0.14844  0.17736  1.0000
  O   O8        1.0  0.58488  0.85156  0.82265  1.0000
  O   O9        1.0  0.93801  0.76505  0.14675  1.0000
  O   O10       1.0  0.06199  0.23495  0.85325  1.0000
