data_image0
_chemical_formula_structural       Mn2H28C40N8O10
_chemical_formula_sum              "Mn2 H28 C40 N8 O10"
_cell_length_a       9.71308
_cell_length_b       9.90171
_cell_length_c       11.9589
_cell_angle_alpha    82.3103
_cell_angle_beta     68.0033
_cell_angle_gamma    61.6859

_space_group_name_H-M_alt    "P 1"
_space_group_IT_number       1

loop_
  _space_group_symop_operation_xyz
  'x, y, z'

loop_
  _atom_site_type_symbol
  _atom_site_label
  _atom_site_symmetry_multiplicity
  _atom_site_fract_x
  _atom_site_fract_y
  _atom_site_fract_z
  _atom_site_occupancy
  Mn  Mn1       1.0  0.49617  0.17198  0.89793  1.0000
  Mn  Mn2       1.0  0.50383  0.82802  0.10207  1.0000
  H   H1        1.0  0.48486  0.77054  0.40989  1.0000
  H   H2        1.0  0.51515  0.22945  0.59011  1.0000
  H   H3        1.0  0.34819  0.43515  0.11085  1.0000
  H   H4        1.0  0.65182  0.56485  0.88914  1.0000
  H   H5        1.0  0.08440  0.23576  0.04561  1.0000
  H   H6        1.0  0.91560  0.76424  0.95439  1.0000
  H   H7        1.0  0.87506  0.44093  0.24789  1.0000
  H   H8        1.0  0.12494  0.55908  0.75211  1.0000
  H   H9        1.0  0.79312  0.70579  0.30964  1.0000
  H   H10       1.0  0.20688  0.29421  0.69036  1.0000
  H   H11       1.0  0.71158  0.87557  0.48275  1.0000
  H   H12       1.0  0.28842  0.12442  0.51725  1.0000
  H   H13       1.0  0.20609  0.61553  0.49895  1.0000
  H   H14       1.0  0.79391  0.38447  0.50105  1.0000
  H   H15       1.0  0.28747  0.44586  0.32703  1.0000
  H   H16       1.0  0.71253  0.55414  0.67296  1.0000
  H   H17       1.0  0.64493  0.90315  0.68434  1.0000
  H   H18       1.0  0.35507  0.09685  0.31566  1.0000
  H   H19       1.0  0.91189  0.08223  0.76972  1.0000
  H   H20       1.0  0.08811  0.91777  0.23028  1.0000
  H   H21       1.0  0.12580  0.87741  0.56954  1.0000
  H   H22       1.0  0.87420  0.12260  0.43046  1.0000
  H   H23       1.0  0.39988  0.00598  0.65449  1.0000
  H   H24       1.0  0.60012  0.99401  0.34551  1.0000
  H   H25       1.0  0.44102  0.58936  0.54236  1.0000
  H   H26       1.0  0.55899  0.41062  0.45764  1.0000
  H   H27       1.0  0.38017  0.65861  0.90942  1.0000
  H   H28       1.0  0.61982  0.34139  0.09059  1.0000
  C   C1        1.0  0.25130  0.40477  0.11943  1.0000
  C   C2        1.0  0.74870  0.59523  0.88057  1.0000
  C   C3        1.0  0.10779  0.30807  0.08891  1.0000
  C   C4        1.0  0.89221  0.69194  0.91110  1.0000
  C   C5        1.0  0.00335  0.40754  0.18870  1.0000
  C   C6        1.0  0.99666  0.59246  0.81129  1.0000
  C   C7        1.0  0.04656  0.56710  0.30655  1.0000
  C   C8        1.0  0.95344  0.43290  0.69345  1.0000
  C   C9        1.0  0.88321  0.68609  0.35120  1.0000
  C   C10       1.0  0.11678  0.31391  0.64880  1.0000
  C   C11       1.0  0.83724  0.78057  0.44854  1.0000
  C   C12       1.0  0.16276  0.21942  0.55146  1.0000
  C   C13       1.0  0.95357  0.75726  0.50060  1.0000
  C   C14       1.0  0.04643  0.24274  0.49940  1.0000
  C   C15       1.0  0.11655  0.63758  0.45625  1.0000
  C   C16       1.0  0.88345  0.36242  0.54375  1.0000
  C   C17       1.0  0.16230  0.54213  0.35963  1.0000
  C   C18       1.0  0.83771  0.45787  0.64036  1.0000
  C   C19       1.0  0.74431  0.92573  0.68232  1.0000
  C   C20       1.0  0.25569  0.07427  0.31768  1.0000
  C   C21       1.0  0.88812  0.01405  0.72251  1.0000
  C   C22       1.0  0.11188  0.98596  0.27749  1.0000
  C   C23       1.0  0.99591  0.91217  0.62450  1.0000
  C   C24       1.0  0.00409  0.08784  0.37550  1.0000
  C   C25       1.0  0.37420  0.93838  0.88515  1.0000
  C   C26       1.0  0.62579  0.06162  0.11485  1.0000
  C   C27       1.0  0.38148  0.84462  0.79230  1.0000
  C   C28       1.0  0.61851  0.15538  0.20770  1.0000
  C   C29       1.0  0.39871  0.89607  0.67527  1.0000
  C   C30       1.0  0.60129  0.10393  0.32473  1.0000
  C   C31       1.0  0.42136  0.80379  0.58432  1.0000
  C   C32       1.0  0.57864  0.19621  0.41568  1.0000
  C   C33       1.0  0.42408  0.66090  0.61259  1.0000
  C   C34       1.0  0.57592  0.33909  0.38740  1.0000
  C   C35       1.0  0.41272  0.60696  0.72833  1.0000
  C   C36       1.0  0.58727  0.39304  0.27167  1.0000
  C   C37       1.0  0.38874  0.69980  0.81921  1.0000
  C   C38       1.0  0.61125  0.30020  0.18080  1.0000
  C   C39       1.0  0.44188  0.44385  0.74908  1.0000
  C   C40       1.0  0.55812  0.55614  0.25092  1.0000
  N   N1        1.0  0.26177  0.30737  0.04654  1.0000
  N   N2        1.0  0.73823  0.69263  0.95346  1.0000
  N   N3        1.0  0.09662  0.46765  0.20796  1.0000
  N   N4        1.0  0.90338  0.53236  0.79204  1.0000
  N   N5        1.0  0.90255  0.85682  0.59923  1.0000
  N   N6        1.0  0.09745  0.14318  0.40077  1.0000
  N   N7        1.0  0.73140  0.02144  0.75763  1.0000
  N   N8        1.0  0.26860  0.97856  0.24237  1.0000
  O   O1        1.0  0.38076  0.06417  0.85286  1.0000
  O   O2        1.0  0.61924  0.93583  0.14714  1.0000
  O   O3        1.0  0.36801  0.88397  0.98854  1.0000
  O   O4        1.0  0.63198  0.11604  0.01146  1.0000
  O   O5        1.0  0.49441  0.38006  0.83521  1.0000
  O   O6        1.0  0.50559  0.61994  0.16479  1.0000
  O   O7        1.0  0.41575  0.37996  0.67930  1.0000
  O   O8        1.0  0.58426  0.62003  0.32070  1.0000
  O   O9        1.0  0.44021  0.85615  0.47130  1.0000
  O   O10       1.0  0.55979  0.14384  0.52870  1.0000
