data_image0
_chemical_formula_structural       Nd2Co2H28C28N20O8
_chemical_formula_sum              "Nd2 Co2 H28 C28 N20 O8"
_cell_length_a       8.86218
_cell_length_b       8.85884
_cell_length_c       14.8602
_cell_angle_alpha    78.8378
_cell_angle_beta     87.6252
_cell_angle_gamma    66.0802

_space_group_name_H-M_alt    "P 1"
_space_group_IT_number       1

loop_
  _space_group_symop_operation_xyz
  'x, y, z'

loop_
  _atom_site_type_symbol
  _atom_site_label
  _atom_site_symmetry_multiplicity
  _atom_site_fract_x
  _atom_site_fract_y
  _atom_site_fract_z
  _atom_site_occupancy
  Nd  Nd1       1.0  0.54964  0.87586  0.72010  1.0000
  Nd  Nd2       1.0  0.45027  0.12414  0.27992  1.0000
  Co  Co1       1.0  0.00006  0.99969  0.50001  1.0000
  Co  Co2       1.0  0.99999  0.50000  0.00001  1.0000
  H   H1        1.0  0.91322  0.86118  0.81089  1.0000
  H   H2        1.0  0.08683  0.13879  0.18904  1.0000
  H   H3        1.0  0.04432  0.03761  0.86083  1.0000
  H   H4        1.0  0.95571  0.96233  0.13912  1.0000
  H   H5        1.0  0.87748  0.35612  0.82391  1.0000
  H   H6        1.0  0.12254  0.64381  0.17612  1.0000
  H   H7        1.0  0.11969  0.67587  0.70854  1.0000
  H   H8        1.0  0.88030  0.32412  0.29155  1.0000
  H   H9        1.0  0.96984  0.50593  0.66849  1.0000
  H   H10       1.0  0.03019  0.49412  0.33146  1.0000
  H   H11       1.0  0.13789  0.19353  0.68070  1.0000
  H   H12       1.0  0.86211  0.80653  0.31917  1.0000
  H   H13       1.0  0.69949  0.54959  0.60525  1.0000
  H   H14       1.0  0.30020  0.45057  0.39471  1.0000
  H   H15       1.0  0.62469  0.52666  0.70011  1.0000
  H   H16       1.0  0.37538  0.47318  0.29994  1.0000
  H   H17       1.0  0.34780  0.71614  0.85240  1.0000
  H   H18       1.0  0.65220  0.28383  0.14768  1.0000
  H   H19       1.0  0.40491  0.60740  0.77381  1.0000
  H   H20       1.0  0.59509  0.39259  0.22626  1.0000
  H   H21       1.0  0.38529  0.03208  0.89661  1.0000
  H   H22       1.0  0.61467  0.96803  0.10339  1.0000
  H   H23       1.0  0.52349  0.84437  0.93100  1.0000
  H   H24       1.0  0.47659  0.15579  0.06900  1.0000
  H   H25       1.0  0.40515  0.15674  0.53308  1.0000
  H   H26       1.0  0.59484  0.84505  0.46694  1.0000
  H   H27       1.0  0.59271  0.10297  0.51761  1.0000
  H   H28       1.0  0.40741  0.89800  0.48243  1.0000
  C   C1        1.0  0.84631  0.99652  0.80424  1.0000
  C   C2        1.0  0.15373  0.00345  0.19568  1.0000
  C   C3        1.0  0.91975  0.09454  0.82992  1.0000
  C   C4        1.0  0.08025  0.90542  0.17007  1.0000
  C   C5        1.0  0.82729  0.26769  0.81181  1.0000
  C   C6        1.0  0.17274  0.73225  0.18819  1.0000
  C   C7        1.0  0.60545  0.23011  0.76245  1.0000
  C   C8        1.0  0.39458  0.76986  0.23753  1.0000
  C   C9        1.0  0.42584  0.30512  0.73589  1.0000
  C   C10       1.0  0.57418  0.69486  0.26408  1.0000
  C   C11       1.0  0.18310  0.54125  0.70976  1.0000
  C   C12       1.0  0.81690  0.45874  0.29025  1.0000
  C   C13       1.0  0.10061  0.44762  0.68858  1.0000
  C   C14       1.0  0.89939  0.55239  0.31140  1.0000
  C   C15       1.0  0.19354  0.27603  0.69524  1.0000
  C   C16       1.0  0.80646  0.72401  0.30466  1.0000
  C   C17       1.0  0.86874  0.59588  0.89356  1.0000
  C   C18       1.0  0.13124  0.40411  0.10645  1.0000
  C   C19       1.0  0.87540  0.37351  0.04094  1.0000
  C   C20       1.0  0.12456  0.62651  0.95909  1.0000
  C   C21       1.0  0.85127  0.67969  0.04943  1.0000
  C   C22       1.0  0.14872  0.32036  0.95056  1.0000
  C   C23       1.0  0.89349  0.90079  0.58616  1.0000
  C   C24       1.0  0.10650  0.09875  0.41382  1.0000
  C   C25       1.0  0.10940  0.78889  0.46334  1.0000
  C   C26       1.0  0.89074  0.21044  0.53667  1.0000
  C   C27       1.0  0.17628  0.95339  0.57888  1.0000
  C   C28       1.0  0.82384  0.04619  0.42112  1.0000
  N   N1        1.0  0.68907  0.06301  0.77101  1.0000
  N   N2        1.0  0.31095  0.93695  0.22897  1.0000
  N   N3        1.0  0.35590  0.20340  0.71894  1.0000
  N   N4        1.0  0.64408  0.79661  0.28102  1.0000
  N   N5        1.0  0.67144  0.33529  0.77749  1.0000
  N   N6        1.0  0.32857  0.66465  0.22255  1.0000
  N   N7        1.0  0.34440  0.47045  0.73310  1.0000
  N   N8        1.0  0.65557  0.52951  0.26696  1.0000
  N   N9        1.0  0.78055  0.66406  0.82814  1.0000
  N   N10       1.0  0.21937  0.33597  0.17190  1.0000
  N   N11       1.0  0.79887  0.29344  0.06716  1.0000
  N   N12       1.0  0.20112  0.70655  0.93289  1.0000
  N   N13       1.0  0.75457  0.79644  0.07607  1.0000
  N   N14       1.0  0.24541  0.20364  0.92389  1.0000
  N   N15       1.0  0.81479  0.84368  0.63514  1.0000
  N   N16       1.0  0.18507  0.15605  0.36485  1.0000
  N   N17       1.0  0.17242  0.65724  0.44170  1.0000
  N   N18       1.0  0.82754  0.34199  0.55838  1.0000
  N   N19       1.0  0.29238  0.93461  0.62230  1.0000
  N   N20       1.0  0.70770  0.06532  0.37764  1.0000
  O   O1        1.0  0.47102  0.92875  0.87659  1.0000
  O   O2        1.0  0.52893  0.07135  0.12341  1.0000
  O   O3        1.0  0.41806  0.69999  0.79772  1.0000
  O   O4        1.0  0.58192  0.30000  0.20234  1.0000
  O   O5        1.0  0.63147  0.61678  0.64959  1.0000
  O   O6        1.0  0.36844  0.38318  0.35047  1.0000
  O   O7        1.0  0.51286  0.10415  0.56519  1.0000
  O   O8        1.0  0.48726  0.89593  0.43474  1.0000
