data_image0
_chemical_formula_structural       Ni2H30C30N10O10
_chemical_formula_sum              "Ni2 H30 C30 N10 O10"
_cell_length_a       9.10064
_cell_length_b       9.83853
_cell_length_c       10.5924
_cell_angle_alpha    114.887
_cell_angle_beta     96.4696
_cell_angle_gamma    106.617

_space_group_name_H-M_alt    "P 1"
_space_group_IT_number       1

loop_
  _space_group_symop_operation_xyz
  'x, y, z'

loop_
  _atom_site_type_symbol
  _atom_site_label
  _atom_site_symmetry_multiplicity
  _atom_site_fract_x
  _atom_site_fract_y
  _atom_site_fract_z
  _atom_site_occupancy
  Ni  Ni1       1.0  0.24229  0.39613  0.23124  1.0000
  Ni  Ni2       1.0  0.75772  0.60387  0.76878  1.0000
  H   H1        1.0  0.13105  0.45377  0.94827  1.0000
  H   H2        1.0  0.86895  0.54621  0.05172  1.0000
  H   H3        1.0  0.28609  0.10048  0.97692  1.0000
  H   H4        1.0  0.71392  0.89952  0.02308  1.0000
  H   H5        1.0  0.11913  0.23293  0.67280  1.0000
  H   H6        1.0  0.88087  0.76707  0.32720  1.0000
  H   H7        1.0  0.09435  0.89045  0.61701  1.0000
  H   H8        1.0  0.90565  0.10955  0.38299  1.0000
  H   H9        1.0  0.27805  0.93232  0.73108  1.0000
  H   H10       1.0  0.72196  0.06768  0.26892  1.0000
  H   H11       1.0  0.30524  0.90261  0.49313  1.0000
  H   H12       1.0  0.69477  0.09739  0.50687  1.0000
  H   H13       1.0  0.23461  0.05907  0.51370  1.0000
  H   H14       1.0  0.76539  0.94093  0.48630  1.0000
  H   H15       1.0  0.43768  0.31514  0.58213  1.0000
  H   H16       1.0  0.56231  0.68486  0.41787  1.0000
  H   H17       1.0  0.82338  0.32295  0.85016  1.0000
  H   H18       1.0  0.17662  0.67707  0.14985  1.0000
  H   H19       1.0  0.56934  0.03418  0.75332  1.0000
  H   H20       1.0  0.43067  0.96583  0.24668  1.0000
  H   H21       1.0  0.64343  0.11257  0.01916  1.0000
  H   H22       1.0  0.35657  0.88744  0.98085  1.0000
  H   H23       1.0  0.93050  0.17091  0.02068  1.0000
  H   H24       1.0  0.06949  0.82909  0.97934  1.0000
  H   H25       1.0  0.07368  0.59687  0.40464  1.0000
  H   H26       1.0  0.92633  0.40312  0.59536  1.0000
  H   H27       1.0  0.15388  0.18748  0.31126  1.0000
  H   H28       1.0  0.84611  0.81250  0.68873  1.0000
  H   H29       1.0  0.25988  0.13744  0.20213  1.0000
  H   H30       1.0  0.74010  0.86254  0.79787  1.0000
  C   C1        1.0  0.15821  0.34549  0.91410  1.0000
  C   C2        1.0  0.84179  0.65450  0.08589  1.0000
  C   C3        1.0  0.24103  0.16770  0.93444  1.0000
  C   C4        1.0  0.75897  0.83230  0.06556  1.0000
  C   C5        1.0  0.15048  0.23668  0.77661  1.0000
  C   C6        1.0  0.84952  0.76331  0.22339  1.0000
  C   C7        1.0  0.21457  0.98166  0.67792  1.0000
  C   C8        1.0  0.78543  0.01833  0.32208  1.0000
  C   C9        1.0  0.29968  0.01589  0.57268  1.0000
  C   C10       1.0  0.70033  0.98411  0.42731  1.0000
  C   C11       1.0  0.51078  0.28040  0.64144  1.0000
  C   C12       1.0  0.48922  0.71960  0.35855  1.0000
  C   C13       1.0  0.70515  0.28042  0.78125  1.0000
  C   C14       1.0  0.29484  0.71959  0.21874  1.0000
  C   C15       1.0  0.58152  0.13602  0.73339  1.0000
  C   C16       1.0  0.41848  0.86398  0.26662  1.0000
  C   C17       1.0  0.52374  0.28591  0.22572  1.0000
  C   C18       1.0  0.47627  0.71410  0.77429  1.0000
  C   C19       1.0  0.69595  0.32461  0.22450  1.0000
  C   C20       1.0  0.30405  0.67539  0.77549  1.0000
  C   C21       1.0  0.73572  0.22078  0.10764  1.0000
  C   C22       1.0  0.26428  0.77923  0.89236  1.0000
  C   C23       1.0  0.89443  0.25343  0.10623  1.0000
  C   C24       1.0  0.10556  0.74658  0.89378  1.0000
  C   C25       1.0  0.97432  0.49095  0.32157  1.0000
  C   C26       1.0  0.02567  0.50905  0.67843  1.0000
  C   C27       1.0  0.81887  0.46394  0.33437  1.0000
  C   C28       1.0  0.18112  0.53607  0.66563  1.0000
  C   C29       1.0  0.79384  0.57548  0.47324  1.0000
  C   C30       1.0  0.20616  0.42453  0.52676  1.0000
  N   N1        1.0  0.21421  0.30081  0.01160  1.0000
  N   N2        1.0  0.78578  0.69918  0.98840  1.0000
  N   N3        1.0  0.20411  0.12504  0.79194  1.0000
  N   N4        1.0  0.79589  0.87496  0.20806  1.0000
  N   N5        1.0  0.45952  0.13829  0.64454  1.0000
  N   N6        1.0  0.54048  0.86171  0.35547  1.0000
  N   N7        1.0  0.65932  0.36949  0.72401  1.0000
  N   N8        1.0  0.34067  0.63051  0.27599  1.0000
  N   N9        1.0  0.01281  0.38618  0.21257  1.0000
  N   N10       1.0  0.98719  0.61382  0.78744  1.0000
  O   O1        1.0  0.47597  0.40232  0.25946  1.0000
  O   O2        1.0  0.52405  0.59770  0.74054  1.0000
  O   O3        1.0  0.44009  0.13956  0.18624  1.0000
  O   O4        1.0  0.55993  0.86046  0.81376  1.0000
  O   O5        1.0  0.72463  0.50616  0.53937  1.0000
  O   O6        1.0  0.27536  0.49384  0.46063  1.0000
  O   O7        1.0  0.85162  0.72664  0.51623  1.0000
  O   O8        1.0  0.14839  0.27338  0.48378  1.0000
  O   O9        1.0  0.15833  0.15809  0.20900  1.0000
  O   O10       1.0  0.84167  0.84191  0.79101  1.0000
