data_image0
_chemical_formula_structural       Cu6H8C10N6Cl4
_chemical_formula_sum              "Cu6 H8 C10 N6 Cl4"
_cell_length_a       3.57404
_cell_length_b       6.80684
_cell_length_c       17.0303
_cell_angle_alpha    89.9999
_cell_angle_beta     89.9997
_cell_angle_gamma    88.2721

_space_group_name_H-M_alt    "P 1"
_space_group_IT_number       1

loop_
  _space_group_symop_operation_xyz
  'x, y, z'

loop_
  _atom_site_type_symbol
  _atom_site_label
  _atom_site_symmetry_multiplicity
  _atom_site_fract_x
  _atom_site_fract_y
  _atom_site_fract_z
  _atom_site_occupancy
  Cu  Cu1       1.0  0.44928  0.25100  0.67594  1.0000
  Cu  Cu2       1.0  0.44927  0.25101  0.82406  1.0000
  Cu  Cu3       1.0  0.55073  0.74900  0.32406  1.0000
  Cu  Cu4       1.0  0.55072  0.74900  0.17594  1.0000
  Cu  Cu5       1.0  0.22097  0.89399  0.75000  1.0000
  Cu  Cu6       1.0  0.77904  0.10603  0.25000  1.0000
  H   H1        1.0  0.36108  0.33863  0.37639  1.0000
  H   H2        1.0  0.36108  0.33864  0.12360  1.0000
  H   H3        1.0  0.63892  0.66135  0.62360  1.0000
  H   H4        1.0  0.63891  0.66136  0.87640  1.0000
  H   H5        1.0  0.71142  0.83580  0.49451  1.0000
  H   H6        1.0  0.71140  0.83581  0.00549  1.0000
  H   H7        1.0  0.28858  0.16418  0.50549  1.0000
  H   H8        1.0  0.28860  0.16419  0.99451  1.0000
  C   C1        1.0  0.43428  0.46339  0.75000  1.0000
  C   C2        1.0  0.56572  0.53662  0.25000  1.0000
  C   C3        1.0  0.42180  0.41121  0.43177  1.0000
  C   C4        1.0  0.42178  0.41121  0.06823  1.0000
  C   C5        1.0  0.57823  0.58878  0.56823  1.0000
  C   C6        1.0  0.57820  0.58879  0.93177  1.0000
  C   C7        1.0  0.38511  0.31452  0.50309  1.0000
  C   C8        1.0  0.38510  0.31452  0.99690  1.0000
  C   C9        1.0  0.61491  0.68547  0.49690  1.0000
  C   C10       1.0  0.61489  0.68548  0.00310  1.0000
  N   N1        1.0  0.41284  0.63831  0.75000  1.0000
  N   N2        1.0  0.58715  0.36171  0.25000  1.0000
  N   N3        1.0  0.53774  0.59733  0.42827  1.0000
  N   N4        1.0  0.53773  0.59734  0.07173  1.0000
  N   N5        1.0  0.46225  0.40265  0.57172  1.0000
  N   N6        1.0  0.46225  0.40266  0.92827  1.0000
  Cl  Cl1       1.0  0.96303  0.03062  0.63947  1.0000
  Cl  Cl2       1.0  0.96304  0.03062  0.86053  1.0000
  Cl  Cl3       1.0  0.03695  0.96938  0.36053  1.0000
  Cl  Cl4       1.0  0.03695  0.96940  0.13947  1.0000
