data_image0
_chemical_formula_structural       Cd2H22C32I2N4O2
_chemical_formula_sum              "Cd2 H22 C32 I2 N4 O2"
_cell_length_a       8.67047
_cell_length_b       9.02061
_cell_length_c       10.1635
_cell_angle_alpha    78.6414
_cell_angle_beta     77.9086
_cell_angle_gamma    77.5437

_space_group_name_H-M_alt    "P 1"
_space_group_IT_number       1

loop_
  _space_group_symop_operation_xyz
  'x, y, z'

loop_
  _atom_site_type_symbol
  _atom_site_label
  _atom_site_symmetry_multiplicity
  _atom_site_fract_x
  _atom_site_fract_y
  _atom_site_fract_z
  _atom_site_occupancy
  Cd  Cd1       1.0  0.58640  0.06956  0.32526  1.0000
  Cd  Cd2       1.0  0.41360  0.93045  0.67474  1.0000
  H   H1        1.0  0.75714  0.94582  0.77233  1.0000
  H   H2        1.0  0.24286  0.05418  0.22767  1.0000
  H   H3        1.0  0.97348  0.06062  0.81392  1.0000
  H   H4        1.0  0.02653  0.93937  0.18607  1.0000
  H   H5        1.0  0.09368  0.25707  0.64055  1.0000
  H   H6        1.0  0.90633  0.74293  0.35945  1.0000
  H   H7        1.0  0.09326  0.42528  0.40599  1.0000
  H   H8        1.0  0.90673  0.57473  0.59401  1.0000
  H   H9        1.0  0.99192  0.48901  0.18608  1.0000
  H   H10       1.0  0.00808  0.51100  0.81393  1.0000
  H   H11       1.0  0.75624  0.23650  0.08781  1.0000
  H   H12       1.0  0.24376  0.76350  0.91219  1.0000
  H   H13       1.0  0.77502  0.57946  0.06264  1.0000
  H   H14       1.0  0.22499  0.42054  0.93736  1.0000
  H   H15       1.0  0.71739  0.26191  0.88148  1.0000
  H   H16       1.0  0.28261  0.73809  0.11852  1.0000
  H   H17       1.0  0.60705  0.32691  0.66785  1.0000
  H   H18       1.0  0.39294  0.67309  0.33215  1.0000
  H   H19       1.0  0.51131  0.60552  0.57694  1.0000
  H   H20       1.0  0.48869  0.39448  0.42306  1.0000
  H   H21       1.0  0.62747  0.74796  0.90181  1.0000
  H   H22       1.0  0.37253  0.25203  0.09820  1.0000
  C   C1        1.0  0.75618  0.06575  0.56761  1.0000
  C   C2        1.0  0.24382  0.93425  0.43239  1.0000
  C   C3        1.0  0.81081  0.02851  0.69222  1.0000
  C   C4        1.0  0.18919  0.97149  0.30778  1.0000
  C   C5        1.0  0.93257  0.09551  0.71601  1.0000
  C   C6        1.0  0.06743  0.90449  0.28399  1.0000
  C   C7        1.0  0.00078  0.20519  0.61939  1.0000
  C   C8        1.0  0.99922  0.79480  0.38061  1.0000
  C   C9        1.0  0.94892  0.24903  0.49220  1.0000
  C   C10       1.0  0.05108  0.75097  0.50781  1.0000
  C   C11       1.0  0.83083  0.17596  0.46375  1.0000
  C   C12       1.0  0.16917  0.82404  0.53625  1.0000
  C   C13       1.0  0.00521  0.36473  0.38820  1.0000
  C   C14       1.0  0.99479  0.63527  0.61180  1.0000
  C   C15       1.0  0.94999  0.40005  0.26630  1.0000
  C   C16       1.0  0.05000  0.59995  0.73370  1.0000
  C   C17       1.0  0.84143  0.31498  0.24234  1.0000
  C   C18       1.0  0.15857  0.68502  0.75766  1.0000
  C   C19       1.0  0.78495  0.33886  0.11301  1.0000
  C   C20       1.0  0.21505  0.66114  0.88699  1.0000
  C   C21       1.0  0.75623  0.47595  0.03181  1.0000
  C   C22       1.0  0.24377  0.52405  0.96819  1.0000
  C   C23       1.0  0.68897  0.50071  0.90760  1.0000
  C   C24       1.0  0.31103  0.49928  0.09240  1.0000
  C   C25       1.0  0.67714  0.38206  0.84103  1.0000
  C   C26       1.0  0.32286  0.61794  0.15897  1.0000
  C   C27       1.0  0.61457  0.41815  0.72095  1.0000
  C   C28       1.0  0.38543  0.58186  0.27905  1.0000
  C   C29       1.0  0.56190  0.57161  0.67041  1.0000
  C   C30       1.0  0.43810  0.42839  0.32959  1.0000
  C   C31       1.0  0.62862  0.65188  0.85040  1.0000
  C   C32       1.0  0.37138  0.34812  0.14960  1.0000
  I   I1        1.0  0.69285  0.90468  0.11449  1.0000
  I   I2        1.0  0.30715  0.09532  0.88551  1.0000
  N   N1        1.0  0.78500  0.20703  0.34012  1.0000
  N   N2        1.0  0.21500  0.79297  0.65988  1.0000
  N   N3        1.0  0.56593  0.68629  0.73607  1.0000
  N   N4        1.0  0.43407  0.31371  0.26393  1.0000
  O   O1        1.0  0.64161  0.00624  0.54112  1.0000
  O   O2        1.0  0.35839  0.99376  0.45888  1.0000
