data_image0
_chemical_formula_structural       Ca2H24C32N4O12
_chemical_formula_sum              "Ca2 H24 C32 N4 O12"
_cell_length_a       7.04352
_cell_length_b       7.40599
_cell_length_c       16.3412
_cell_angle_alpha    89.9997
_cell_angle_beta     89.9999
_cell_angle_gamma    114.656

_space_group_name_H-M_alt    "P 1"
_space_group_IT_number       1

loop_
  _space_group_symop_operation_xyz
  'x, y, z'

loop_
  _atom_site_type_symbol
  _atom_site_label
  _atom_site_symmetry_multiplicity
  _atom_site_fract_x
  _atom_site_fract_y
  _atom_site_fract_z
  _atom_site_occupancy
  Ca  Ca1       1.0  0.75000  0.75000  0.53121  1.0000
  Ca  Ca2       1.0  0.25000  0.25000  0.46879  1.0000
  H   H1        1.0  0.61260  0.05366  0.59702  1.0000
  H   H2        1.0  0.88739  0.44634  0.59702  1.0000
  H   H3        1.0  0.38739  0.94634  0.40298  1.0000
  H   H4        1.0  0.11260  0.55366  0.40298  1.0000
  H   H5        1.0  0.85671  0.13040  0.60501  1.0000
  H   H6        1.0  0.64329  0.36960  0.60501  1.0000
  H   H7        1.0  0.14329  0.86961  0.39499  1.0000
  H   H8        1.0  0.35670  0.63039  0.39499  1.0000
  H   H9        1.0  0.05326  0.23783  0.28552  1.0000
  H   H10       1.0  0.44673  0.26217  0.28552  1.0000
  H   H11       1.0  0.94673  0.76217  0.71448  1.0000
  H   H12       1.0  0.55327  0.73783  0.71447  1.0000
  H   H13       1.0  0.06413  0.25372  0.13298  1.0000
  H   H14       1.0  0.43587  0.24628  0.13298  1.0000
  H   H15       1.0  0.93587  0.74627  0.86702  1.0000
  H   H16       1.0  0.56414  0.75373  0.86702  1.0000
  H   H17       1.0  0.45075  0.76746  0.12341  1.0000
  H   H18       1.0  0.04925  0.73253  0.12341  1.0000
  H   H19       1.0  0.54925  0.23253  0.87659  1.0000
  H   H20       1.0  0.95076  0.26747  0.87659  1.0000
  H   H21       1.0  0.44107  0.75244  0.27490  1.0000
  H   H22       1.0  0.05892  0.74756  0.27490  1.0000
  H   H23       1.0  0.55892  0.24755  0.72510  1.0000
  H   H24       1.0  0.94108  0.25245  0.72510  1.0000
  C   C1        1.0  0.74813  0.97236  0.38099  1.0000
  C   C2        1.0  0.75187  0.52764  0.38099  1.0000
  C   C3        1.0  0.25187  0.02763  0.61901  1.0000
  C   C4        1.0  0.24813  0.47236  0.61901  1.0000
  C   C5        1.0  0.74752  0.99352  0.29005  1.0000
  C   C6        1.0  0.75247  0.50648  0.29005  1.0000
  C   C7        1.0  0.25247  0.00648  0.70995  1.0000
  C   C8        1.0  0.24753  0.49352  0.70995  1.0000
  C   C9        1.0  0.92266  0.13456  0.24974  1.0000
  C   C10       1.0  0.57733  0.36544  0.24973  1.0000
  C   C11       1.0  0.07733  0.86543  0.75026  1.0000
  C   C12       1.0  0.42267  0.63457  0.75026  1.0000
  C   C13       1.0  0.92950  0.14401  0.16478  1.0000
  C   C14       1.0  0.57050  0.35598  0.16478  1.0000
  C   C15       1.0  0.07049  0.85598  0.83522  1.0000
  C   C16       1.0  0.42952  0.64402  0.83522  1.0000
  C   C17       1.0  0.75856  0.01029  0.11962  1.0000
  C   C18       1.0  0.74144  0.48970  0.11962  1.0000
  C   C19       1.0  0.24144  0.98970  0.88038  1.0000
  C   C20       1.0  0.25857  0.51030  0.88038  1.0000
  C   C21       1.0  0.58090  0.87061  0.15938  1.0000
  C   C22       1.0  0.91910  0.62939  0.15938  1.0000
  C   C23       1.0  0.41909  0.12939  0.84062  1.0000
  C   C24       1.0  0.08091  0.37061  0.84062  1.0000
  C   C25       1.0  0.57656  0.86352  0.24423  1.0000
  C   C26       1.0  0.92343  0.63648  0.24423  1.0000
  C   C27       1.0  0.42343  0.13647  0.75577  1.0000
  C   C28       1.0  0.07657  0.36353  0.75577  1.0000
  C   C29       1.0  0.76199  0.01278  0.03244  1.0000
  C   C30       1.0  0.73802  0.48722  0.03244  1.0000
  C   C31       1.0  0.23801  0.98721  0.96756  1.0000
  C   C32       1.0  0.26200  0.51279  0.96756  1.0000
  N   N1        1.0  0.75988  0.01024  0.96098  1.0000
  N   N2        1.0  0.74014  0.48976  0.96098  1.0000
  N   N3        1.0  0.24013  0.98976  0.03902  1.0000
  N   N4        1.0  0.25988  0.51023  0.03902  1.0000
  O   O1        1.0  0.58094  0.84949  0.41698  1.0000
  O   O2        1.0  0.91905  0.65051  0.41698  1.0000
  O   O3        1.0  0.41905  0.15051  0.58302  1.0000
  O   O4        1.0  0.08094  0.34949  0.58302  1.0000
  O   O5        1.0  0.91334  0.06653  0.42159  1.0000
  O   O6        1.0  0.58665  0.43346  0.42159  1.0000
  O   O7        1.0  0.08665  0.93346  0.57841  1.0000
  O   O8        1.0  0.41334  0.56654  0.57841  1.0000
  O   O9        1.0  0.72409  0.00964  0.60946  1.0000
  O   O10       1.0  0.77590  0.49036  0.60946  1.0000
  O   O11       1.0  0.27590  0.99036  0.39054  1.0000
  O   O12       1.0  0.22408  0.50964  0.39054  1.0000
