data_image0
_chemical_formula_structural       Cu4H20C12S4N16
_chemical_formula_sum              "Cu4 H20 C12 S4 N16"
_cell_length_a       6.47137
_cell_length_b       8.72939
_cell_length_c       10.7571
_cell_angle_alpha    106.001
_cell_angle_beta     90
_cell_angle_gamma    90

_space_group_name_H-M_alt    "P 1"
_space_group_IT_number       1

loop_
  _space_group_symop_operation_xyz
  'x, y, z'

loop_
  _atom_site_type_symbol
  _atom_site_label
  _atom_site_symmetry_multiplicity
  _atom_site_fract_x
  _atom_site_fract_y
  _atom_site_fract_z
  _atom_site_occupancy
  Cu  Cu1       1.0  0.08915  0.49075  0.15257  1.0000
  Cu  Cu2       1.0  0.58915  0.50925  0.34743  1.0000
  Cu  Cu3       1.0  0.91085  0.50925  0.84743  1.0000
  Cu  Cu4       1.0  0.41085  0.49075  0.65257  1.0000
  H   H1        1.0  0.71215  0.22412  0.49908  1.0000
  H   H2        1.0  0.21215  0.77588  0.00091  1.0000
  H   H3        1.0  0.28785  0.77588  0.50092  1.0000
  H   H4        1.0  0.78785  0.22412  0.99908  1.0000
  H   H5        1.0  0.51743  0.13952  0.38449  1.0000
  H   H6        1.0  0.01743  0.86047  0.11551  1.0000
  H   H7        1.0  0.48257  0.86047  0.61551  1.0000
  H   H8        1.0  0.98257  0.13953  0.88449  1.0000
  H   H9        1.0  0.72886  0.92222  0.44103  1.0000
  H   H10       1.0  0.22886  0.07777  0.05897  1.0000
  H   H11       1.0  0.27115  0.07777  0.55897  1.0000
  H   H12       1.0  0.77115  0.92222  0.94103  1.0000
  H   H13       1.0  0.95494  0.99802  0.38698  1.0000
  H   H14       1.0  0.45493  0.00197  0.11302  1.0000
  H   H15       1.0  0.04507  0.00198  0.61302  1.0000
  H   H16       1.0  0.54507  0.99802  0.88698  1.0000
  H   H17       1.0  0.75374  0.91435  0.27537  1.0000
  H   H18       1.0  0.25374  0.08565  0.22463  1.0000
  H   H19       1.0  0.24627  0.08565  0.72463  1.0000
  H   H20       1.0  0.74626  0.91435  0.77537  1.0000
  C   C1        1.0  0.01144  0.32552  0.35744  1.0000
  C   C2        1.0  0.51145  0.67448  0.14257  1.0000
  C   C3        1.0  0.98855  0.67448  0.64257  1.0000
  C   C4        1.0  0.48855  0.32552  0.85743  1.0000
  C   C5        1.0  0.68497  0.14924  0.40032  1.0000
  C   C6        1.0  0.18497  0.85076  0.09968  1.0000
  C   C7        1.0  0.31503  0.85076  0.59968  1.0000
  C   C8        1.0  0.81503  0.14924  0.90032  1.0000
  C   C9        1.0  0.78700  0.98707  0.37395  1.0000
  C   C10       1.0  0.28700  0.01293  0.12605  1.0000
  C   C11       1.0  0.21300  0.01293  0.62605  1.0000
  C   C12       1.0  0.71300  0.98707  0.87395  1.0000
  S   S1        1.0  0.77057  0.26190  0.28983  1.0000
  S   S2        1.0  0.27057  0.73810  0.21017  1.0000
  S   S3        1.0  0.22942  0.73810  0.71017  1.0000
  S   S4        1.0  0.72942  0.26190  0.78983  1.0000
  N   N1        1.0  0.14450  0.40257  0.29875  1.0000
  N   N2        1.0  0.64450  0.59743  0.20126  1.0000
  N   N3        1.0  0.85550  0.59743  0.70126  1.0000
  N   N4        1.0  0.35549  0.40257  0.79875  1.0000
  N   N5        1.0  0.30690  0.44011  0.38008  1.0000
  N   N6        1.0  0.80690  0.55989  0.11992  1.0000
  N   N7        1.0  0.69310  0.55989  0.61992  1.0000
  N   N8        1.0  0.19309  0.44011  0.88008  1.0000
  N   N9        1.0  0.26900  0.38787  0.48326  1.0000
  N   N10       1.0  0.76900  0.61213  0.01673  1.0000
  N   N11       1.0  0.73100  0.61213  0.51673  1.0000
  N   N12       1.0  0.23100  0.38787  0.98326  1.0000
  N   N13       1.0  0.08439  0.31438  0.47134  1.0000
  N   N14       1.0  0.58440  0.68562  0.02866  1.0000
  N   N15       1.0  0.91560  0.68562  0.52866  1.0000
  N   N16       1.0  0.41560  0.31438  0.97135  1.0000
