data_image0
_chemical_formula_structural       Cu8H20C12S4N16Cl4
_chemical_formula_sum              "Cu8 H20 C12 S4 N16 Cl4"
_cell_length_a       6.95214
_cell_length_b       6.95215
_cell_length_c       17.1687
_cell_angle_alpha    79.5681
_cell_angle_beta     79.5683
_cell_angle_gamma    74.2227

_space_group_name_H-M_alt    "P 1"
_space_group_IT_number       1

loop_
  _space_group_symop_operation_xyz
  'x, y, z'

loop_
  _atom_site_type_symbol
  _atom_site_label
  _atom_site_symmetry_multiplicity
  _atom_site_fract_x
  _atom_site_fract_y
  _atom_site_fract_z
  _atom_site_occupancy
  Cu  Cu1       1.0  0.40717  0.88146  0.68616  1.0000
  Cu  Cu2       1.0  0.11854  0.59283  0.81384  1.0000
  Cu  Cu3       1.0  0.59283  0.11854  0.31384  1.0000
  Cu  Cu4       1.0  0.88146  0.40717  0.18616  1.0000
  Cu  Cu5       1.0  0.51610  0.75695  0.49436  1.0000
  Cu  Cu6       1.0  0.24305  0.48390  0.00564  1.0000
  Cu  Cu7       1.0  0.48390  0.24305  0.50565  1.0000
  Cu  Cu8       1.0  0.75695  0.51610  0.99436  1.0000
  H   H1        1.0  0.10213  0.16204  0.56361  1.0000
  H   H2        1.0  0.83796  0.89787  0.93639  1.0000
  H   H3        1.0  0.89787  0.83796  0.43639  1.0000
  H   H4        1.0  0.16204  0.10213  0.06361  1.0000
  H   H5        1.0  0.95010  0.03319  0.63785  1.0000
  H   H6        1.0  0.96681  0.04990  0.86215  1.0000
  H   H7        1.0  0.04990  0.96681  0.36215  1.0000
  H   H8        1.0  0.03319  0.95010  0.13785  1.0000
  H   H9        1.0  0.74043  0.35857  0.57235  1.0000
  H   H10       1.0  0.64143  0.25957  0.92765  1.0000
  H   H11       1.0  0.25957  0.64143  0.42765  1.0000
  H   H12       1.0  0.35857  0.74043  0.07235  1.0000
  H   H13       1.0  0.88113  0.49847  0.60527  1.0000
  H   H14       1.0  0.50153  0.11887  0.89473  1.0000
  H   H15       1.0  0.11887  0.50153  0.39473  1.0000
  H   H16       1.0  0.49847  0.88113  0.10527  1.0000
  H   H17       1.0  0.72882  0.36215  0.67655  1.0000
  H   H18       1.0  0.63785  0.27118  0.82344  1.0000
  H   H19       1.0  0.27118  0.63785  0.32345  1.0000
  H   H20       1.0  0.36215  0.72882  0.17655  1.0000
  C   C1        1.0  0.24541  0.37558  0.66069  1.0000
  C   C2        1.0  0.62442  0.75459  0.83931  1.0000
  C   C3        1.0  0.75459  0.62442  0.33931  1.0000
  C   C4        1.0  0.37558  0.24541  0.16069  1.0000
  C   C5        1.0  0.00235  0.17241  0.62095  1.0000
  C   C6        1.0  0.82759  0.99765  0.87905  1.0000
  C   C7        1.0  0.99765  0.82759  0.37905  1.0000
  C   C8        1.0  0.17241  0.00235  0.12095  1.0000
  C   C9        1.0  0.82894  0.35902  0.61915  1.0000
  C   C10       1.0  0.64098  0.17106  0.88085  1.0000
  C   C11       1.0  0.17106  0.64097  0.38085  1.0000
  C   C12       1.0  0.35902  0.82894  0.11915  1.0000
  S   S1        1.0  0.15661  0.16078  0.69831  1.0000
  S   S2        1.0  0.83922  0.84339  0.80169  1.0000
  S   S3        1.0  0.84339  0.83922  0.30169  1.0000
  S   S4        1.0  0.16078  0.15661  0.19831  1.0000
  N   N1        1.0  0.23437  0.52185  0.70432  1.0000
  N   N2        1.0  0.47815  0.76563  0.79568  1.0000
  N   N3        1.0  0.76563  0.47814  0.29568  1.0000
  N   N4        1.0  0.52185  0.23437  0.20432  1.0000
  N   N5        1.0  0.31330  0.66178  0.65362  1.0000
  N   N6        1.0  0.33822  0.68670  0.84638  1.0000
  N   N7        1.0  0.68670  0.33822  0.34638  1.0000
  N   N8        1.0  0.66177  0.31331  0.15362  1.0000
  N   N9        1.0  0.36650  0.60484  0.58172  1.0000
  N   N10       1.0  0.39516  0.63350  0.91828  1.0000
  N   N11       1.0  0.63350  0.39516  0.41828  1.0000
  N   N12       1.0  0.60484  0.36650  0.08172  1.0000
  N   N13       1.0  0.32928  0.42221  0.58455  1.0000
  N   N14       1.0  0.57779  0.67072  0.91545  1.0000
  N   N15       1.0  0.67072  0.57779  0.41545  1.0000
  N   N16       1.0  0.42221  0.32928  0.08455  1.0000
  Cl  Cl1       1.0  0.65011  0.93318  0.57558  1.0000
  Cl  Cl2       1.0  0.06681  0.34989  0.92442  1.0000
  Cl  Cl3       1.0  0.34989  0.06682  0.42442  1.0000
  Cl  Cl4       1.0  0.93318  0.65011  0.07558  1.0000
