data_image0
_chemical_formula_structural       Cu4H12C8S4N16
_chemical_formula_sum              "Cu4 H12 C8 S4 N16"
_cell_length_a       6.47641
_cell_length_b       7.59721
_cell_length_c       9.94738
_cell_angle_alpha    104.975
_cell_angle_beta     89.9998
_cell_angle_gamma    90.0005

_space_group_name_H-M_alt    "P 1"
_space_group_IT_number       1

loop_
  _space_group_symop_operation_xyz
  'x, y, z'

loop_
  _atom_site_type_symbol
  _atom_site_label
  _atom_site_symmetry_multiplicity
  _atom_site_fract_x
  _atom_site_fract_y
  _atom_site_fract_z
  _atom_site_occupancy
  Cu  Cu1       1.0  0.09180  0.14766  0.65911  1.0000
  Cu  Cu2       1.0  0.59180  0.35233  0.84089  1.0000
  Cu  Cu3       1.0  0.90821  0.85233  0.34089  1.0000
  Cu  Cu4       1.0  0.40820  0.64768  0.15911  1.0000
  H   H1        1.0  0.29744  0.37693  0.32401  1.0000
  H   H2        1.0  0.79743  0.12307  0.17599  1.0000
  H   H3        1.0  0.70256  0.62305  0.67598  1.0000
  H   H4        1.0  0.20256  0.87693  0.82401  1.0000
  H   H5        1.0  0.03815  0.37926  0.38508  1.0000
  H   H6        1.0  0.53814  0.12075  0.11493  1.0000
  H   H7        1.0  0.96185  0.62074  0.61492  1.0000
  H   H8        1.0  0.46186  0.87926  0.88507  1.0000
  H   H9        1.0  0.17533  0.16802  0.33547  1.0000
  H   H10       1.0  0.67533  0.33199  0.16454  1.0000
  H   H11       1.0  0.82467  0.83198  0.66453  1.0000
  H   H12       1.0  0.32468  0.66802  0.83547  1.0000
  C   C1        1.0  0.51319  0.24889  0.53474  1.0000
  C   C2        1.0  0.01321  0.25112  0.96526  1.0000
  C   C3        1.0  0.48681  0.75111  0.46525  1.0000
  C   C4        1.0  0.98682  0.74890  0.03475  1.0000
  C   C5        1.0  0.18965  0.31455  0.38264  1.0000
  C   C6        1.0  0.68964  0.18545  0.11737  1.0000
  C   C7        1.0  0.81035  0.68543  0.61735  1.0000
  C   C8        1.0  0.31036  0.81456  0.88263  1.0000
  S   S1        1.0  0.27396  0.35705  0.56128  1.0000
  S   S2        1.0  0.77395  0.14294  0.93872  1.0000
  S   S3        1.0  0.72604  0.64294  0.43871  1.0000
  S   S4        1.0  0.22604  0.85706  0.06128  1.0000
  N   N1        1.0  0.64769  0.26124  0.64052  1.0000
  N   N2        1.0  0.14767  0.23875  0.85949  1.0000
  N   N3        1.0  0.35232  0.73876  0.35949  1.0000
  N   N4        1.0  0.85231  0.76125  0.14051  1.0000
  N   N5        1.0  0.80940  0.15633  0.58306  1.0000
  N   N6        1.0  0.30940  0.34366  0.91695  1.0000
  N   N7        1.0  0.19060  0.84366  0.41694  1.0000
  N   N8        1.0  0.69060  0.65635  0.08305  1.0000
  N   N9        1.0  0.76890  0.08384  0.44860  1.0000
  N   N10       1.0  0.26889  0.41615  0.05140  1.0000
  N   N11       1.0  0.23110  0.91615  0.55140  1.0000
  N   N12       1.0  0.73110  0.58385  0.94860  1.0000
  N   N13       1.0  0.58350  0.13995  0.41533  1.0000
  N   N14       1.0  0.08349  0.36003  0.08466  1.0000
  N   N15       1.0  0.41650  0.86004  0.58467  1.0000
  N   N16       1.0  0.91650  0.63996  0.91533  1.0000
