data_image0
_chemical_formula_structural       Co4P2H44C22N2O12
_chemical_formula_sum              "Co4 P2 H44 C22 N2 O12"
_cell_length_a       6.19036
_cell_length_b       8.56963
_cell_length_c       14.8678
_cell_angle_alpha    106.392
_cell_angle_beta     90.0007
_cell_angle_gamma    89.9995

_space_group_name_H-M_alt    "P 1"
_space_group_IT_number       1

loop_
  _space_group_symop_operation_xyz
  'x, y, z'

loop_
  _atom_site_type_symbol
  _atom_site_label
  _atom_site_symmetry_multiplicity
  _atom_site_fract_x
  _atom_site_fract_y
  _atom_site_fract_z
  _atom_site_occupancy
  Co  Co1       1.0  0.90152  0.80778  0.03663  1.0000
  Co  Co2       1.0  0.40153  0.19221  0.96337  1.0000
  Co  Co3       1.0  0.15677  0.50381  0.00808  1.0000
  Co  Co4       1.0  0.65677  0.49619  0.99192  1.0000
  P   P1        1.0  0.90695  0.16005  0.02018  1.0000
  P   P2        1.0  0.40695  0.83995  0.97983  1.0000
  H   H1        1.0  0.09795  0.14234  0.15271  1.0000
  H   H2        1.0  0.59794  0.85764  0.84729  1.0000
  H   H3        1.0  0.86137  0.26423  0.18858  1.0000
  H   H4        1.0  0.36134  0.73576  0.81143  1.0000
  H   H5        1.0  0.75618  0.87121  0.24772  1.0000
  H   H6        1.0  0.25620  0.12879  0.75228  1.0000
  H   H7        1.0  0.12986  0.80569  0.18291  1.0000
  H   H8        1.0  0.62988  0.19431  0.81710  1.0000
  H   H9        1.0  0.13167  0.86894  0.30660  1.0000
  H   H10       1.0  0.63170  0.13104  0.69341  1.0000
  H   H11       1.0  0.21605  0.00518  0.24314  1.0000
  H   H12       1.0  0.71606  0.99481  0.75688  1.0000
  H   H13       1.0  0.94902  0.21019  0.33192  1.0000
  H   H14       1.0  0.44901  0.78981  0.66808  1.0000
  H   H15       1.0  0.47622  0.10522  0.32905  1.0000
  H   H16       1.0  0.97623  0.89480  0.67095  1.0000
  H   H17       1.0  0.58087  0.23281  0.26437  1.0000
  H   H18       1.0  0.08086  0.76721  0.73563  1.0000
  H   H19       1.0  0.68936  0.43864  0.41031  1.0000
  H   H20       1.0  0.18935  0.56138  0.58969  1.0000
  H   H21       1.0  0.41026  0.39815  0.41119  1.0000
  H   H22       1.0  0.91025  0.60188  0.58880  1.0000
  H   H23       1.0  0.58133  0.40972  0.56603  1.0000
  H   H24       1.0  0.08132  0.59031  0.43396  1.0000
  H   H25       1.0  0.46311  0.21906  0.51297  1.0000
  H   H26       1.0  0.96312  0.78096  0.48702  1.0000
  H   H27       1.0  0.82430  0.17464  0.57322  1.0000
  H   H28       1.0  0.32430  0.82538  0.42678  1.0000
  H   H29       1.0  0.94594  0.30188  0.51320  1.0000
  H   H30       1.0  0.44594  0.69813  0.48680  1.0000
  H   H31       1.0  0.72321  0.97483  0.42228  1.0000
  H   H32       1.0  0.22321  0.02519  0.57773  1.0000
  H   H33       1.0  0.00349  0.01466  0.42727  1.0000
  H   H34       1.0  0.50349  0.98536  0.57274  1.0000
  H   H35       1.0  0.12872  0.53824  0.22268  1.0000
  H   H36       1.0  0.62872  0.46173  0.77731  1.0000
  H   H37       1.0  0.31400  0.55706  0.31860  1.0000
  H   H38       1.0  0.81399  0.44293  0.68139  1.0000
  H   H39       1.0  0.27592  0.36723  0.23311  1.0000
  H   H40       1.0  0.77591  0.63276  0.76690  1.0000
  H   H41       1.0  0.65630  0.01215  0.14395  1.0000
  H   H42       1.0  0.15629  0.98786  0.85604  1.0000
  H   H43       1.0  0.83276  0.59142  0.14185  1.0000
  H   H44       1.0  0.33274  0.40855  0.85814  1.0000
  C   C1        1.0  0.92371  0.15027  0.14095  1.0000
  C   C2        1.0  0.42369  0.84973  0.85905  1.0000
  C   C3        1.0  0.86738  0.97036  0.24501  1.0000
  C   C4        1.0  0.36739  0.02964  0.75500  1.0000
  C   C5        1.0  0.09930  0.90938  0.24428  1.0000
  C   C6        1.0  0.59931  0.09061  0.75573  1.0000
  C   C7        1.0  0.82397  0.11737  0.33101  1.0000
  C   C8        1.0  0.32398  0.88263  0.66899  1.0000
  C   C9        1.0  0.60223  0.19626  0.32900  1.0000
  C   C10       1.0  0.10224  0.80376  0.67100  1.0000
  C   C11       1.0  0.57059  0.34452  0.41399  1.0000
  C   C12       1.0  0.07057  0.65549  0.58600  1.0000
  C   C13       1.0  0.59653  0.30027  0.50606  1.0000
  C   C14       1.0  0.09651  0.69976  0.49394  1.0000
  C   C15       1.0  0.81233  0.21497  0.50927  1.0000
  C   C16       1.0  0.31234  0.78506  0.49073  1.0000
  C   C17       1.0  0.84496  0.06946  0.42281  1.0000
  C   C18       1.0  0.34497  0.93054  0.57719  1.0000
  C   C19       1.0  0.46878  0.53320  0.18618  1.0000
  C   C20       1.0  0.96879  0.46676  0.81381  1.0000
  C   C21       1.0  0.28407  0.49944  0.24422  1.0000
  C   C22       1.0  0.78406  0.50054  0.75578  1.0000
  N   N1        1.0  0.82029  0.00266  0.15290  1.0000
  N   N2        1.0  0.32029  0.99734  0.84710  1.0000
  O   O1        1.0  0.91498  0.98631  0.95613  1.0000
  O   O2        1.0  0.41500  0.01369  0.04388  1.0000
  O   O3        1.0  0.10798  0.26385  0.01183  1.0000
  O   O4        1.0  0.60797  0.73615  0.98817  1.0000
  O   O5        1.0  0.70308  0.25555  0.00504  1.0000
  O   O6        1.0  0.20308  0.74446  0.99497  1.0000
  O   O7        1.0  0.89633  0.60211  0.08157  1.0000
  O   O8        1.0  0.39633  0.39788  0.91843  1.0000
  O   O9        1.0  0.42442  0.52994  0.10030  1.0000
  O   O10       1.0  0.92443  0.47006  0.89971  1.0000
  O   O11       1.0  0.65560  0.55878  0.22071  1.0000
  O   O12       1.0  0.15557  0.44115  0.77929  1.0000
