data_image0
_chemical_formula_structural       Cd2H28C28N16O4
_chemical_formula_sum              "Cd2 H28 C28 N16 O4"
_cell_length_a       8.4821
_cell_length_b       8.71044
_cell_length_c       11.155
_cell_angle_alpha    95.7253
_cell_angle_beta     89.9999
_cell_angle_gamma    89.9999

_space_group_name_H-M_alt    "P 1"
_space_group_IT_number       1

loop_
  _space_group_symop_operation_xyz
  'x, y, z'

loop_
  _atom_site_type_symbol
  _atom_site_label
  _atom_site_symmetry_multiplicity
  _atom_site_fract_x
  _atom_site_fract_y
  _atom_site_fract_z
  _atom_site_occupancy
  Cd  Cd1       1.0  0.00000  0.00000  0.50000  1.0000
  Cd  Cd2       1.0  0.50000  0.50000  0.50000  1.0000
  H   H1        1.0  0.63340  0.08129  0.55579  1.0000
  H   H2        1.0  0.86660  0.58130  0.55580  1.0000
  H   H3        1.0  0.36660  0.91870  0.44421  1.0000
  H   H4        1.0  0.13340  0.41870  0.44421  1.0000
  H   H5        1.0  0.41574  0.01914  0.69214  1.0000
  H   H6        1.0  0.08426  0.51914  0.69215  1.0000
  H   H7        1.0  0.58426  0.98085  0.30785  1.0000
  H   H8        1.0  0.91574  0.48086  0.30786  1.0000
  H   H9        1.0  0.76072  0.79781  0.90275  1.0000
  H   H10       1.0  0.73928  0.29782  0.90276  1.0000
  H   H11       1.0  0.23928  0.20218  0.09724  1.0000
  H   H12       1.0  0.26072  0.70219  0.09724  1.0000
  H   H13       1.0  0.96365  0.86656  0.75638  1.0000
  H   H14       1.0  0.53635  0.36656  0.75638  1.0000
  H   H15       1.0  0.03635  0.13345  0.24362  1.0000
  H   H16       1.0  0.46365  0.63345  0.24362  1.0000
  H   H17       1.0  0.23639  0.89857  0.79126  1.0000
  H   H18       1.0  0.26360  0.39856  0.79126  1.0000
  H   H19       1.0  0.76361  0.10144  0.20874  1.0000
  H   H20       1.0  0.73639  0.60143  0.20874  1.0000
  H   H21       1.0  0.28457  0.05157  0.89942  1.0000
  H   H22       1.0  0.21543  0.55157  0.89942  1.0000
  H   H23       1.0  0.71544  0.94843  0.10058  1.0000
  H   H24       1.0  0.78457  0.44844  0.10058  1.0000
  H   H25       1.0  0.20116  0.87874  0.94764  1.0000
  H   H26       1.0  0.29884  0.37874  0.94764  1.0000
  H   H27       1.0  0.79884  0.12126  0.05236  1.0000
  H   H28       1.0  0.70116  0.62126  0.05237  1.0000
  C   C1        1.0  0.65703  0.01792  0.63332  1.0000
  C   C2        1.0  0.84296  0.51793  0.63332  1.0000
  C   C3        1.0  0.34297  0.98207  0.36668  1.0000
  C   C4        1.0  0.15704  0.48207  0.36668  1.0000
  C   C5        1.0  0.53564  0.98398  0.71034  1.0000
  C   C6        1.0  0.96436  0.48399  0.71034  1.0000
  C   C7        1.0  0.46436  0.01602  0.28966  1.0000
  C   C8        1.0  0.03564  0.51602  0.28966  1.0000
  C   C9        1.0  0.56993  0.90289  0.80922  1.0000
  C   C10       1.0  0.93007  0.40289  0.80923  1.0000
  C   C11       1.0  0.43007  0.09711  0.19077  1.0000
  C   C12       1.0  0.06994  0.59711  0.19078  1.0000
  C   C13       1.0  0.72670  0.86036  0.82707  1.0000
  C   C14       1.0  0.77329  0.36037  0.82707  1.0000
  C   C15       1.0  0.27330  0.13963  0.17293  1.0000
  C   C16       1.0  0.22671  0.63963  0.17293  1.0000
  C   C17       1.0  0.84082  0.89911  0.74606  1.0000
  C   C18       1.0  0.65917  0.39912  0.74607  1.0000
  C   C19       1.0  0.15918  0.10088  0.25394  1.0000
  C   C20       1.0  0.34082  0.60089  0.25394  1.0000
  C   C21       1.0  0.44445  0.86146  0.89567  1.0000
  C   C22       1.0  0.05554  0.36146  0.89567  1.0000
  C   C23       1.0  0.55555  0.13854  0.10433  1.0000
  C   C24       1.0  0.94445  0.63854  0.10433  1.0000
  C   C25       1.0  0.28132  0.92491  0.88324  1.0000
  C   C26       1.0  0.21868  0.42491  0.88324  1.0000
  C   C27       1.0  0.71868  0.07509  0.11676  1.0000
  C   C28       1.0  0.78132  0.57509  0.11676  1.0000
  N   N1        1.0  0.83671  0.84945  0.36370  1.0000
  N   N2        1.0  0.66329  0.34944  0.36370  1.0000
  N   N3        1.0  0.16330  0.15056  0.63630  1.0000
  N   N4        1.0  0.33671  0.65056  0.63630  1.0000
  N   N5        1.0  0.72733  0.78526  0.40273  1.0000
  N   N6        1.0  0.77268  0.28525  0.40274  1.0000
  N   N7        1.0  0.27268  0.21475  0.59726  1.0000
  N   N8        1.0  0.22733  0.71475  0.59726  1.0000
  N   N9        1.0  0.61361  0.72653  0.43877  1.0000
  N   N10       1.0  0.88640  0.22653  0.43878  1.0000
  N   N11       1.0  0.38640  0.27347  0.56123  1.0000
  N   N12       1.0  0.11360  0.77347  0.56123  1.0000
  N   N13       1.0  0.80717  0.97586  0.65026  1.0000
  N   N14       1.0  0.69283  0.47586  0.65026  1.0000
  N   N15       1.0  0.19284  0.02414  0.34974  1.0000
  N   N16       1.0  0.30717  0.52414  0.34974  1.0000
  O   O1        1.0  0.47869  0.78036  0.97660  1.0000
  O   O2        1.0  0.02131  0.28036  0.97660  1.0000
  O   O3        1.0  0.52131  0.21964  0.02340  1.0000
  O   O4        1.0  0.97868  0.71965  0.02341  1.0000
