data_image0
_chemical_formula_structural       Cd4H28C28N28O4
_chemical_formula_sum              "Cd4 H28 C28 N28 O4"
_cell_length_a       9.1587
_cell_length_b       9.26727
_cell_length_c       13.5907
_cell_angle_alpha    90.0002
_cell_angle_beta     89.9996
_cell_angle_gamma    113.323

_space_group_name_H-M_alt    "P 1"
_space_group_IT_number       1

loop_
  _space_group_symop_operation_xyz
  'x, y, z'

loop_
  _atom_site_type_symbol
  _atom_site_label
  _atom_site_symmetry_multiplicity
  _atom_site_fract_x
  _atom_site_fract_y
  _atom_site_fract_z
  _atom_site_occupancy
  Cd  Cd1       1.0  0.88008  0.89936  0.60328  1.0000
  Cd  Cd2       1.0  0.38007  0.89937  0.89672  1.0000
  Cd  Cd3       1.0  0.11992  0.10063  0.39672  1.0000
  Cd  Cd4       1.0  0.61993  0.10063  0.10328  1.0000
  H   H1        1.0  0.28100  0.47024  0.61462  1.0000
  H   H2        1.0  0.78100  0.47024  0.88538  1.0000
  H   H3        1.0  0.71900  0.52975  0.38538  1.0000
  H   H4        1.0  0.21900  0.52976  0.11462  1.0000
  H   H5        1.0  0.34232  0.23882  0.66549  1.0000
  H   H6        1.0  0.84233  0.23882  0.83451  1.0000
  H   H7        1.0  0.65768  0.76118  0.33451  1.0000
  H   H8        1.0  0.15768  0.76118  0.16549  1.0000
  H   H9        1.0  0.62597  0.27780  0.68840  1.0000
  H   H10       1.0  0.12598  0.27780  0.81160  1.0000
  H   H11       1.0  0.37402  0.72220  0.31160  1.0000
  H   H12       1.0  0.87402  0.72220  0.18840  1.0000
  H   H13       1.0  0.83972  0.54669  0.66114  1.0000
  H   H14       1.0  0.33973  0.54670  0.83886  1.0000
  H   H15       1.0  0.16028  0.45330  0.33886  1.0000
  H   H16       1.0  0.66028  0.45330  0.16115  1.0000
  H   H17       1.0  0.27183  0.71872  0.63865  1.0000
  H   H18       1.0  0.77183  0.71871  0.86135  1.0000
  H   H19       1.0  0.72817  0.28128  0.36135  1.0000
  H   H20       1.0  0.22817  0.28129  0.13865  1.0000
  H   H21       1.0  0.27038  0.67761  0.51248  1.0000
  H   H22       1.0  0.77039  0.67761  0.98751  1.0000
  H   H23       1.0  0.72962  0.32239  0.48752  1.0000
  H   H24       1.0  0.22962  0.32240  0.01248  1.0000
  H   H25       1.0  0.34058  0.87799  0.55115  1.0000
  H   H26       1.0  0.84057  0.87798  0.94885  1.0000
  H   H27       1.0  0.65943  0.12201  0.44886  1.0000
  H   H28       1.0  0.15942  0.12202  0.05115  1.0000
  C   C1        1.0  0.52885  0.62764  0.61064  1.0000
  C   C2        1.0  0.02885  0.62764  0.88935  1.0000
  C   C3        1.0  0.47115  0.37236  0.38935  1.0000
  C   C4        1.0  0.97115  0.37236  0.11065  1.0000
  C   C5        1.0  0.40310  0.48241  0.62526  1.0000
  C   C6        1.0  0.90311  0.48241  0.87473  1.0000
  C   C7        1.0  0.59690  0.51759  0.37474  1.0000
  C   C8        1.0  0.09690  0.51759  0.12527  1.0000
  C   C9        1.0  0.43687  0.35415  0.65357  1.0000
  C   C10       1.0  0.93687  0.35415  0.84643  1.0000
  C   C11       1.0  0.56313  0.64585  0.34644  1.0000
  C   C12       1.0  0.06313  0.64585  0.15356  1.0000
  C   C13       1.0  0.59480  0.37535  0.66696  1.0000
  C   C14       1.0  0.09480  0.37536  0.83303  1.0000
  C   C15       1.0  0.40519  0.62464  0.33304  1.0000
  C   C16       1.0  0.90520  0.62465  0.16697  1.0000
  C   C17       1.0  0.71437  0.52449  0.65174  1.0000
  C   C18       1.0  0.21437  0.52449  0.84826  1.0000
  C   C19       1.0  0.28563  0.47551  0.34826  1.0000
  C   C20       1.0  0.78563  0.47551  0.15174  1.0000
  C   C21       1.0  0.50282  0.77004  0.57687  1.0000
  C   C22       1.0  0.00282  0.77004  0.92313  1.0000
  C   C23       1.0  0.49717  0.22996  0.42313  1.0000
  C   C24       1.0  0.99718  0.22996  0.07687  1.0000
  C   C25       1.0  0.33726  0.76191  0.56982  1.0000
  C   C26       1.0  0.83726  0.76191  0.93017  1.0000
  C   C27       1.0  0.66273  0.23808  0.43018  1.0000
  C   C28       1.0  0.16274  0.23809  0.06982  1.0000
  N   N1        1.0  0.03055  0.14966  0.55080  1.0000
  N   N2        1.0  0.53055  0.14967  0.94920  1.0000
  N   N3        1.0  0.96945  0.85033  0.44921  1.0000
  N   N4        1.0  0.46945  0.85034  0.05079  1.0000
  N   N5        1.0  0.00322  0.26263  0.57375  1.0000
  N   N6        1.0  0.50323  0.26262  0.92625  1.0000
  N   N7        1.0  0.99678  0.73737  0.42625  1.0000
  N   N8        1.0  0.49678  0.73738  0.07375  1.0000
  N   N9        1.0  0.98090  0.37320  0.59681  1.0000
  N   N10       1.0  0.48091  0.37320  0.90319  1.0000
  N   N11       1.0  0.01910  0.62680  0.40319  1.0000
  N   N12       1.0  0.51910  0.62680  0.09681  1.0000
  N   N13       1.0  0.05064  0.82810  0.69622  1.0000
  N   N14       1.0  0.55064  0.82810  0.80378  1.0000
  N   N15       1.0  0.94936  0.17190  0.30378  1.0000
  N   N16       1.0  0.44936  0.17190  0.19622  1.0000
  N   N17       1.0  0.17591  0.91847  0.72479  1.0000
  N   N18       1.0  0.67590  0.91846  0.77521  1.0000
  N   N19       1.0  0.82409  0.08153  0.27521  1.0000
  N   N20       1.0  0.32410  0.08154  0.22479  1.0000
  N   N21       1.0  0.30202  0.00400  0.75453  1.0000
  N   N22       1.0  0.80203  0.00400  0.74547  1.0000
  N   N23       1.0  0.69798  0.99600  0.24547  1.0000
  N   N24       1.0  0.19798  0.99600  0.25453  1.0000
  N   N25       1.0  0.68147  0.64693  0.62387  1.0000
  N   N26       1.0  0.18148  0.64693  0.87612  1.0000
  N   N27       1.0  0.31852  0.35307  0.37613  1.0000
  N   N28       1.0  0.81852  0.35307  0.12388  1.0000
  O   O1        1.0  0.61885  0.89069  0.55307  1.0000
  O   O2        1.0  0.11884  0.89069  0.94692  1.0000
  O   O3        1.0  0.38115  0.10931  0.44693  1.0000
  O   O4        1.0  0.88116  0.10931  0.05308  1.0000
