data_image0
_chemical_formula_structural       Cd3H16C20Br4N22
_chemical_formula_sum              "Cd3 H16 C20 Br4 N22"
_cell_length_a       6.86207
_cell_length_b       9.44366
_cell_length_c       13.1565
_cell_angle_alpha    82.0966
_cell_angle_beta     81.9563
_cell_angle_gamma    88.7474

_space_group_name_H-M_alt    "P 1"
_space_group_IT_number       1

loop_
  _space_group_symop_operation_xyz
  'x, y, z'

loop_
  _atom_site_type_symbol
  _atom_site_label
  _atom_site_symmetry_multiplicity
  _atom_site_fract_x
  _atom_site_fract_y
  _atom_site_fract_z
  _atom_site_occupancy
  Cd  Cd1       1.0  0.00000  1.00000  1.00000  1.0000
  Cd  Cd2       1.0  0.25023  0.41762  0.97733  1.0000
  Cd  Cd3       1.0  0.74977  0.58238  0.02267  1.0000
  H   H1        1.0  0.00699  0.25984  0.80708  1.0000
  H   H2        1.0  0.99301  0.74016  0.19292  1.0000
  H   H3        1.0  0.09147  0.30608  0.61432  1.0000
  H   H4        1.0  0.90853  0.69392  0.38568  1.0000
  H   H5        1.0  0.28831  0.86628  0.62383  1.0000
  H   H6        1.0  0.71170  0.13372  0.37617  1.0000
  H   H7        1.0  0.20768  0.84130  0.81550  1.0000
  H   H8        1.0  0.79232  0.15870  0.18450  1.0000
  H   H9        1.0  0.46017  0.61116  0.78148  1.0000
  H   H10       1.0  0.53984  0.38884  0.21853  1.0000
  H   H11       1.0  0.64317  0.60499  0.60452  1.0000
  H   H12       1.0  0.35683  0.39501  0.39548  1.0000
  H   H13       1.0  0.64392  0.14252  0.67313  1.0000
  H   H14       1.0  0.35607  0.85748  0.32687  1.0000
  H   H15       1.0  0.45831  0.16824  0.84540  1.0000
  H   H16       1.0  0.54169  0.83177  0.15460  1.0000
  C   C1        1.0  0.07213  0.17600  0.76353  1.0000
  C   C2        1.0  0.92787  0.82400  0.23647  1.0000
  C   C3        1.0  0.11753  0.20129  0.65606  1.0000
  C   C4        1.0  0.88247  0.79871  0.34394  1.0000
  C   C5        1.0  0.19525  0.08837  0.60484  1.0000
  C   C6        1.0  0.80475  0.91163  0.39516  1.0000
  C   C7        1.0  0.22970  0.95670  0.66143  1.0000
  C   C8        1.0  0.77030  0.04330  0.33857  1.0000
  C   C9        1.0  0.18341  0.94273  0.76866  1.0000
  C   C10       1.0  0.81659  0.05727  0.23134  1.0000
  C   C11       1.0  0.50016  0.50965  0.75344  1.0000
  C   C12       1.0  0.49983  0.49035  0.24656  1.0000
  C   C13       1.0  0.60333  0.50601  0.65528  1.0000
  C   C14       1.0  0.39667  0.49399  0.34472  1.0000
  C   C15       1.0  0.65214  0.37281  0.62447  1.0000
  C   C16       1.0  0.34786  0.62719  0.37553  1.0000
  C   C17       1.0  0.60426  0.24847  0.69300  1.0000
  C   C18       1.0  0.39573  0.75152  0.30700  1.0000
  C   C19       1.0  0.50014  0.26271  0.78988  1.0000
  C   C20       1.0  0.49985  0.73729  0.21011  1.0000
  Br  Br1       1.0  0.24983  0.11055  0.45812  1.0000
  Br  Br2       1.0  0.75017  0.88945  0.54188  1.0000
  Br  Br3       1.0  0.78302  0.36473  0.48875  1.0000
  Br  Br4       1.0  0.21699  0.63527  0.51125  1.0000
  N   N1        1.0  0.10493  0.04936  0.81925  1.0000
  N   N2        1.0  0.89507  0.95064  0.18075  1.0000
  N   N3        1.0  0.44597  0.39047  0.81942  1.0000
  N   N4        1.0  0.55402  0.60953  0.18058  1.0000
  N   N5        1.0  0.97317  0.49280  0.89001  1.0000
  N   N6        1.0  0.02683  0.50720  0.10999  1.0000
  N   N7        1.0  0.00187  0.56305  0.80515  1.0000
  N   N8        1.0  0.99813  0.43694  0.19485  1.0000
  N   N9        1.0  0.02800  0.62986  0.72320  1.0000
  N   N10       1.0  0.97200  0.37014  0.27680  1.0000
  N   N11       1.0  0.19373  0.18332  0.04754  1.0000
  N   N12       1.0  0.80627  0.81668  0.95246  1.0000
  N   N13       1.0  0.27181  0.13951  0.12326  1.0000
  N   N14       1.0  0.72818  0.86049  0.87674  1.0000
  N   N15       1.0  0.34503  0.09516  0.19563  1.0000
  N   N16       1.0  0.65498  0.90483  0.80438  1.0000
  N   N17       1.0  0.74386  0.16135  0.96993  1.0000
  N   N18       1.0  0.25614  0.83864  0.03006  1.0000
  N   N19       1.0  0.67338  0.25965  0.00726  1.0000
  N   N20       1.0  0.32662  0.74035  0.99274  1.0000
  N   N21       1.0  0.59376  0.35834  0.04338  1.0000
  N   N22       1.0  0.40624  0.64165  0.95662  1.0000
