data_image0
_chemical_formula_structural       Cd4H36C20Br8N4O8
_chemical_formula_sum              "Cd4 H36 C20 Br8 N4 O8"
_cell_length_a       7.413
_cell_length_b       10.1398
_cell_length_c       12.8867
_cell_angle_alpha    89.9997
_cell_angle_beta     89.9992
_cell_angle_gamma    90.0003

_space_group_name_H-M_alt    "P 1"
_space_group_IT_number       1

loop_
  _space_group_symop_operation_xyz
  'x, y, z'

loop_
  _atom_site_type_symbol
  _atom_site_label
  _atom_site_symmetry_multiplicity
  _atom_site_fract_x
  _atom_site_fract_y
  _atom_site_fract_z
  _atom_site_occupancy
  Cd  Cd1       1.0  0.30922  0.24274  0.99767  1.0000
  Cd  Cd2       1.0  0.80922  0.25726  0.00233  1.0000
  Cd  Cd3       1.0  0.69079  0.74274  0.50232  1.0000
  Cd  Cd4       1.0  0.19079  0.75726  0.49767  1.0000
  H   H1        1.0  0.78220  0.99756  0.20299  1.0000
  H   H2        1.0  0.28220  0.50244  0.79701  1.0000
  H   H3        1.0  0.21781  0.49757  0.29701  1.0000
  H   H4        1.0  0.71781  0.00243  0.70299  1.0000
  H   H5        1.0  0.82332  0.88122  0.29380  1.0000
  H   H6        1.0  0.32331  0.61878  0.70620  1.0000
  H   H7        1.0  0.17668  0.38123  0.20620  1.0000
  H   H8        1.0  0.67669  0.11877  0.79380  1.0000
  H   H9        1.0  0.11662  0.93434  0.27653  1.0000
  H   H10       1.0  0.61661  0.56566  0.72347  1.0000
  H   H11       1.0  0.88338  0.43435  0.22347  1.0000
  H   H12       1.0  0.38339  0.06564  0.77654  1.0000
  H   H13       1.0  0.22120  0.88586  0.07484  1.0000
  H   H14       1.0  0.72119  0.61413  0.92515  1.0000
  H   H15       1.0  0.77880  0.38586  0.42516  1.0000
  H   H16       1.0  0.27880  0.11413  0.57485  1.0000
  H   H17       1.0  0.16632  0.75488  0.16148  1.0000
  H   H18       1.0  0.66632  0.74512  0.83852  1.0000
  H   H19       1.0  0.83369  0.25489  0.33851  1.0000
  H   H20       1.0  0.33368  0.24511  0.66150  1.0000
  H   H21       1.0  0.95479  0.71412  0.01857  1.0000
  H   H22       1.0  0.45479  0.78588  0.98142  1.0000
  H   H23       1.0  0.04520  0.21412  0.48142  1.0000
  H   H24       1.0  0.54520  0.28588  0.51859  1.0000
  H   H25       1.0  0.91652  0.88640  0.00095  1.0000
  H   H26       1.0  0.41652  0.61360  0.99905  1.0000
  H   H27       1.0  0.08347  0.38640  0.49906  1.0000
  H   H28       1.0  0.58347  0.11360  0.50094  1.0000
  H   H29       1.0  0.78731  0.71047  0.18114  1.0000
  H   H30       1.0  0.28731  0.78953  0.81886  1.0000
  H   H31       1.0  0.21269  0.21048  0.31886  1.0000
  H   H32       1.0  0.71269  0.28952  0.68114  1.0000
  H   H33       1.0  0.66005  0.82972  0.11057  1.0000
  H   H34       1.0  0.16004  0.67027  0.88943  1.0000
  H   H35       1.0  0.33996  0.32973  0.38943  1.0000
  H   H36       1.0  0.83996  0.17027  0.61056  1.0000
  C   C1        1.0  0.05529  0.08507  0.16317  1.0000
  C   C2        1.0  0.55529  0.41494  0.83683  1.0000
  C   C3        1.0  0.94470  0.58507  0.33684  1.0000
  C   C4        1.0  0.44472  0.91492  0.66316  1.0000
  C   C5        1.0  0.04535  0.94198  0.20215  1.0000
  C   C6        1.0  0.54535  0.55801  0.79784  1.0000
  C   C7        1.0  0.95465  0.44200  0.29785  1.0000
  C   C8        1.0  0.45466  0.05799  0.70215  1.0000
  C   C9        1.0  0.11298  0.84233  0.12157  1.0000
  C   C10       1.0  0.61298  0.65767  0.87843  1.0000
  C   C11       1.0  0.88701  0.34234  0.37843  1.0000
  C   C12       1.0  0.38701  0.15766  0.62158  1.0000
  C   C13       1.0  0.94346  0.80905  0.05870  1.0000
  C   C14       1.0  0.44346  0.69095  0.94130  1.0000
  C   C15       1.0  0.05653  0.30906  0.44130  1.0000
  C   C16       1.0  0.55654  0.19095  0.55870  1.0000
  C   C17       1.0  0.79418  0.80468  0.13999  1.0000
  C   C18       1.0  0.29417  0.69532  0.86001  1.0000
  C   C19       1.0  0.20582  0.30469  0.36001  1.0000
  C   C20       1.0  0.70582  0.19531  0.63999  1.0000
  Br  Br1       1.0  0.06608  0.45101  0.02604  1.0000
  Br  Br2       1.0  0.56612  0.04899  0.97397  1.0000
  Br  Br3       1.0  0.93389  0.95101  0.47397  1.0000
  Br  Br4       1.0  0.43391  0.54899  0.52603  1.0000
  Br  Br5       1.0  0.55147  0.38543  0.11938  1.0000
  Br  Br6       1.0  0.05151  0.11458  0.88061  1.0000
  Br  Br7       1.0  0.44850  0.88542  0.38060  1.0000
  Br  Br8       1.0  0.94853  0.61458  0.61939  1.0000
  N   N1        1.0  0.84852  0.90871  0.21790  1.0000
  N   N2        1.0  0.34851  0.59129  0.78209  1.0000
  N   N3        1.0  0.15149  0.40872  0.28210  1.0000
  N   N4        1.0  0.65149  0.09128  0.71790  1.0000
  O   O1        1.0  0.21122  0.12947  0.14528  1.0000
  O   O2        1.0  0.71120  0.37052  0.85472  1.0000
  O   O3        1.0  0.78879  0.62948  0.35471  1.0000
  O   O4        1.0  0.28879  0.87052  0.64528  1.0000
  O   O5        1.0  0.90562  0.14589  0.15384  1.0000
  O   O6        1.0  0.40558  0.35411  0.84616  1.0000
  O   O7        1.0  0.09440  0.64591  0.34616  1.0000
  O   O8        1.0  0.59441  0.85410  0.65384  1.0000
