data_image0
_chemical_formula_structural       Mn2H20C24S4N4O12
_chemical_formula_sum              "Mn2 H20 C24 S4 N4 O12"
_cell_length_a       4.73041
_cell_length_b       10.6769
_cell_length_c       14.6118
_cell_angle_alpha    82.7733
_cell_angle_beta     80.6889
_cell_angle_gamma    77.2506

_space_group_name_H-M_alt    "P 1"
_space_group_IT_number       1

loop_
  _space_group_symop_operation_xyz
  'x, y, z'

loop_
  _atom_site_type_symbol
  _atom_site_label
  _atom_site_symmetry_multiplicity
  _atom_site_fract_x
  _atom_site_fract_y
  _atom_site_fract_z
  _atom_site_occupancy
  Mn  Mn1       1.0  1.00000  0.00001  0.50000  1.0000
  Mn  Mn2       1.0  0.49998  0.50000  0.00001  1.0000
  H   H1        1.0  0.09497  0.19838  0.26731  1.0000
  H   H2        1.0  0.43753  0.69933  0.76749  1.0000
  H   H3        1.0  0.90507  0.80162  0.73267  1.0000
  H   H4        1.0  0.56246  0.30067  0.23254  1.0000
  H   H5        1.0  0.28622  0.94058  0.05023  1.0000
  H   H6        1.0  0.72216  0.44217  0.55023  1.0000
  H   H7        1.0  0.71382  0.05940  0.94977  1.0000
  H   H8        1.0  0.27776  0.55787  0.44976  1.0000
  H   H9        1.0  0.56980  0.23409  0.58866  1.0000
  H   H10       1.0  0.60782  0.73319  0.08939  1.0000
  H   H11       1.0  0.43021  0.76591  0.41132  1.0000
  H   H12       1.0  0.39219  0.26681  0.91062  1.0000
  H   H13       1.0  0.99584  0.14671  0.11259  1.0000
  H   H14       1.0  0.74382  0.64811  0.61286  1.0000
  H   H15       1.0  0.00421  0.85328  0.88739  1.0000
  H   H16       1.0  0.25614  0.35191  0.38715  1.0000
  H   H17       1.0  0.50072  0.17224  0.50363  1.0000
  H   H18       1.0  0.82319  0.67213  0.00383  1.0000
  H   H19       1.0  0.49929  0.82776  0.49636  1.0000
  H   H20       1.0  0.17681  0.32786  0.99618  1.0000
  C   C1        1.0  0.51389  0.06344  0.36775  1.0000
  C   C2        1.0  0.05373  0.56382  0.86777  1.0000
  C   C3        1.0  0.48612  0.93656  0.63224  1.0000
  C   C4        1.0  0.94625  0.43617  0.13225  1.0000
  C   C5        1.0  0.44985  0.03559  0.27687  1.0000
  C   C6        1.0  0.23648  0.53620  0.77692  1.0000
  C   C7        1.0  0.55017  0.96441  0.72312  1.0000
  C   C8        1.0  0.76352  0.46380  0.22310  1.0000
  C   C9        1.0  0.22399  0.11490  0.23333  1.0000
  C   C10       1.0  0.42621  0.61580  0.73344  1.0000
  C   C11       1.0  0.77603  0.88510  0.76666  1.0000
  C   C12       1.0  0.57375  0.38420  0.26658  1.0000
  C   C13       1.0  0.16675  0.08521  0.14899  1.0000
  C   C14       1.0  0.59816  0.58629  0.64918  1.0000
  C   C15       1.0  0.83331  0.91479  0.85099  1.0000
  C   C16       1.0  0.40178  0.41373  0.35083  1.0000
  C   C17       1.0  0.32998  0.97166  0.11409  1.0000
  C   C18       1.0  0.58342  0.47284  0.61412  1.0000
  C   C19       1.0  0.67005  0.02833  0.88590  1.0000
  C   C20       1.0  0.41655  0.52718  0.38588  1.0000
  C   C21       1.0  0.61152  0.92531  0.23365  1.0000
  C   C22       1.0  0.22895  0.42590  0.73355  1.0000
  C   C23       1.0  0.38850  0.07468  0.76634  1.0000
  C   C24       1.0  0.77105  0.57410  0.26645  1.0000
  S   S1        1.0  0.90527  0.82688  0.28824  1.0000
  S   S2        1.0  0.97939  0.32706  0.78801  1.0000
  S   S3        1.0  0.09475  0.17312  0.71176  1.0000
  S   S4        1.0  0.02063  0.67293  0.21199  1.0000
  N   N1        1.0  0.54515  0.89231  0.15536  1.0000
  N   N2        1.0  0.40637  0.39327  0.65520  1.0000
  N   N3        1.0  0.45488  0.10768  0.84463  1.0000
  N   N4        1.0  0.59361  0.60674  0.34480  1.0000
  O   O1        1.0  0.30586  0.12059  0.42532  1.0000
  O   O2        1.0  0.14678  0.62086  0.92551  1.0000
  O   O3        1.0  0.69415  0.87941  0.57467  1.0000
  O   O4        1.0  0.85321  0.37913  0.07451  1.0000
  O   O5        1.0  0.77812  0.02628  0.38317  1.0000
  O   O6        1.0  0.81126  0.52652  0.88302  1.0000
  O   O7        1.0  0.22187  0.97372  0.61682  1.0000
  O   O8        1.0  0.18871  0.47346  0.11699  1.0000
  O   O9        1.0  0.66152  0.17820  0.53803  1.0000
  O   O10       1.0  0.62231  0.67773  0.03845  1.0000
  O   O11       1.0  0.33849  0.82181  0.46196  1.0000
  O   O12       1.0  0.37769  0.32227  0.96156  1.0000
