data_image0
_chemical_formula_structural       Cd2H16C28S4N12
_chemical_formula_sum              "Cd2 H16 C28 S4 N12"
_cell_length_a       5.67308
_cell_length_b       8.85339
_cell_length_c       17.7313
_cell_angle_alpha    90.0016
_cell_angle_beta     89.9993
_cell_angle_gamma    112.142

_space_group_name_H-M_alt    "P 1"
_space_group_IT_number       1

loop_
  _space_group_symop_operation_xyz
  'x, y, z'

loop_
  _atom_site_type_symbol
  _atom_site_label
  _atom_site_symmetry_multiplicity
  _atom_site_fract_x
  _atom_site_fract_y
  _atom_site_fract_z
  _atom_site_occupancy
  Cd  Cd1       1.0  0.00000  1.00000  0.00000  1.0000
  Cd  Cd2       1.0  0.50001  0.50000  0.50000  1.0000
  H   H1        1.0  0.29509  0.20693  0.86165  1.0000
  H   H2        1.0  0.79507  0.70694  0.63835  1.0000
  H   H3        1.0  0.70491  0.79307  0.13835  1.0000
  H   H4        1.0  0.20492  0.29307  0.36165  1.0000
  H   H5        1.0  0.32155  0.43430  0.77495  1.0000
  H   H6        1.0  0.82150  0.93432  0.72505  1.0000
  H   H7        1.0  0.67847  0.56570  0.22505  1.0000
  H   H8        1.0  0.17848  0.06569  0.27495  1.0000
  H   H9        1.0  0.74744  0.51379  0.91301  1.0000
  H   H10       1.0  0.24741  0.01379  0.58699  1.0000
  H   H11       1.0  0.25256  0.48620  0.08699  1.0000
  H   H12       1.0  0.75257  0.98620  0.41301  1.0000
  H   H13       1.0  0.74663  0.28231  0.99410  1.0000
  H   H14       1.0  0.24659  0.78230  0.50590  1.0000
  H   H15       1.0  0.25338  0.71768  0.00590  1.0000
  H   H16       1.0  0.75338  0.21769  0.49410  1.0000
  C   C1        1.0  0.45576  0.91416  0.90834  1.0000
  C   C2        1.0  0.95577  0.41418  0.59166  1.0000
  C   C3        1.0  0.54425  0.08584  0.09166  1.0000
  C   C4        1.0  0.04427  0.58583  0.40834  1.0000
  C   C5        1.0  0.17928  0.27928  0.87143  1.0000
  C   C6        1.0  0.67925  0.77930  0.62857  1.0000
  C   C7        1.0  0.82073  0.72071  0.12857  1.0000
  C   C8        1.0  0.32072  0.22071  0.37143  1.0000
  C   C9        1.0  0.19395  0.40625  0.82327  1.0000
  C   C10       1.0  0.69390  0.90626  0.67674  1.0000
  C   C11       1.0  0.80606  0.59375  0.17673  1.0000
  C   C12       1.0  0.30607  0.09375  0.32326  1.0000
  C   C13       1.0  0.03729  0.49306  0.83809  1.0000
  C   C14       1.0  0.53724  0.99307  0.66191  1.0000
  C   C15       1.0  0.96272  0.50694  0.16191  1.0000
  C   C16       1.0  0.46273  0.00694  0.33810  1.0000
  C   C17       1.0  0.87277  0.44941  0.90028  1.0000
  C   C18       1.0  0.37274  0.94942  0.59973  1.0000
  C   C19       1.0  0.12724  0.55058  0.09972  1.0000
  C   C20       1.0  0.62725  0.05059  0.40027  1.0000
  C   C21       1.0  0.87218  0.32076  0.94536  1.0000
  C   C22       1.0  0.37215  0.82076  0.55464  1.0000
  C   C23       1.0  0.12782  0.67923  0.05464  1.0000
  C   C24       1.0  0.62782  0.17923  0.44536  1.0000
  C   C25       1.0  0.04494  0.62416  0.79022  1.0000
  C   C26       1.0  0.54490  0.12417  0.70978  1.0000
  C   C27       1.0  0.95508  0.37584  0.20978  1.0000
  C   C28       1.0  0.45510  0.87584  0.29022  1.0000
  S   S1        1.0  0.65756  0.82962  0.88766  1.0000
  S   S2        1.0  0.15758  0.32961  0.61235  1.0000
  S   S3        1.0  0.34245  0.17039  0.11235  1.0000
  S   S4        1.0  0.84247  0.67038  0.38765  1.0000
  N   N1        1.0  0.31014  0.97679  0.92307  1.0000
  N   N2        1.0  0.81013  0.47680  0.57694  1.0000
  N   N3        1.0  0.68986  0.02321  0.07694  1.0000
  N   N4        1.0  0.18988  0.52320  0.42306  1.0000
  N   N5        1.0  0.02306  0.23774  0.93158  1.0000
  N   N6        1.0  0.52302  0.73774  0.56843  1.0000
  N   N7        1.0  0.97695  0.76225  0.06843  1.0000
  N   N8        1.0  0.47696  0.26226  0.43157  1.0000
  N   N9        1.0  0.05214  0.73255  0.75168  1.0000
  N   N10       1.0  0.55213  0.23258  0.74832  1.0000
  N   N11       1.0  0.94785  0.26744  0.24832  1.0000
  N   N12       1.0  0.44786  0.76743  0.25168  1.0000
