data_image0
_chemical_formula_structural       Cd4H16C32S8N16
_chemical_formula_sum              "Cd4 H16 C32 S8 N16"
_cell_length_a       8.12367
_cell_length_b       10.0697
_cell_length_c       15.2256
_cell_angle_alpha    106.81
_cell_angle_beta     90.0039
_cell_angle_gamma    113.778

_space_group_name_H-M_alt    "P 1"
_space_group_IT_number       1

loop_
  _space_group_symop_operation_xyz
  'x, y, z'

loop_
  _atom_site_type_symbol
  _atom_site_label
  _atom_site_symmetry_multiplicity
  _atom_site_fract_x
  _atom_site_fract_y
  _atom_site_fract_z
  _atom_site_occupancy
  Cd  Cd1       1.0  0.77991  0.75259  0.82422  1.0000
  Cd  Cd2       1.0  0.97254  0.75219  0.32416  1.0000
  Cd  Cd3       1.0  0.22008  0.24740  0.17577  1.0000
  Cd  Cd4       1.0  0.02745  0.24780  0.67584  1.0000
  H   H1        1.0  0.23958  0.00393  0.50661  1.0000
  H   H2        1.0  0.76431  0.00420  0.00672  1.0000
  H   H3        1.0  0.76041  0.99608  0.49339  1.0000
  H   H4        1.0  0.23568  0.99579  0.99328  1.0000
  H   H5        1.0  0.43328  0.03002  0.64399  1.0000
  H   H6        1.0  0.59653  0.03004  0.14403  1.0000
  H   H7        1.0  0.56671  0.96999  0.35601  1.0000
  H   H8        1.0  0.40346  0.96996  0.85596  1.0000
  H   H9        1.0  0.27853  0.54116  0.53416  1.0000
  H   H10       1.0  0.26275  0.54116  0.03398  1.0000
  H   H11       1.0  0.72150  0.45885  0.46584  1.0000
  H   H12       1.0  0.73724  0.45884  0.96602  1.0000
  H   H13       1.0  0.08896  0.53755  0.40232  1.0000
  H   H14       1.0  0.44883  0.53781  0.90217  1.0000
  H   H15       1.0  0.91105  0.46246  0.59768  1.0000
  H   H16       1.0  0.55118  0.46218  0.09783  1.0000
  C   C1        1.0  0.47356  0.42113  0.68885  1.0000
  C   C2        1.0  0.94754  0.42071  0.18883  1.0000
  C   C3        1.0  0.52645  0.57887  0.31115  1.0000
  C   C4        1.0  0.05245  0.57929  0.81116  1.0000
  C   C5        1.0  0.03605  0.11825  0.85802  1.0000
  C   C6        1.0  0.08152  0.11770  0.35778  1.0000
  C   C7        1.0  0.96394  0.88174  0.14199  1.0000
  C   C8        1.0  0.91848  0.88229  0.64222  1.0000
  C   C9        1.0  0.46803  0.79324  0.67879  1.0000
  C   C10       1.0  0.32500  0.79303  0.17865  1.0000
  C   C11       1.0  0.53198  0.20676  0.32122  1.0000
  C   C12       1.0  0.67499  0.20696  0.82135  1.0000
  C   C13       1.0  0.25234  0.90497  0.51582  1.0000
  C   C14       1.0  0.65256  0.90519  0.01583  1.0000
  C   C15       1.0  0.74766  0.09503  0.48418  1.0000
  C   C16       1.0  0.34743  0.09481  0.98417  1.0000
  C   C17       1.0  0.35992  0.91904  0.59189  1.0000
  C   C18       1.0  0.55907  0.91909  0.09191  1.0000
  C   C19       1.0  0.64008  0.08096  0.40811  1.0000
  C   C20       1.0  0.44092  0.08091  0.90808  1.0000
  C   C21       1.0  0.36842  0.78638  0.59952  1.0000
  C   C22       1.0  0.41783  0.78636  0.09941  1.0000
  C   C23       1.0  0.63158  0.21362  0.40048  1.0000
  C   C24       1.0  0.58216  0.21363  0.90058  1.0000
  C   C25       1.0  0.27279  0.64571  0.53046  1.0000
  C   C26       1.0  0.37293  0.64577  0.03029  1.0000
  C   C27       1.0  0.72723  0.35430  0.46954  1.0000
  C   C28       1.0  0.62707  0.35423  0.96970  1.0000
  C   C29       1.0  0.16799  0.64357  0.45752  1.0000
  C   C30       1.0  0.47569  0.64378  0.95737  1.0000
  C   C31       1.0  0.83202  0.35644  0.54248  1.0000
  C   C32       1.0  0.52431  0.35622  0.04263  1.0000
  S   S1        1.0  0.33331  0.31308  0.59363  1.0000
  S   S2        1.0  0.97977  0.31290  0.09352  1.0000
  S   S3        1.0  0.66669  0.68691  0.40637  1.0000
  S   S4        1.0  0.02023  0.68711  0.90649  1.0000
  S   S5        1.0  0.19115  0.26113  0.83349  1.0000
  S   S6        1.0  0.06920  0.26055  0.33324  1.0000
  S   S7        1.0  0.80884  0.73887  0.16651  1.0000
  S   S8        1.0  0.93080  0.73945  0.66677  1.0000
  N   N1        1.0  0.57634  0.49839  0.75762  1.0000
  N   N2        1.0  0.92213  0.49798  0.25765  1.0000
  N   N3        1.0  0.42366  0.50161  0.24237  1.0000
  N   N4        1.0  0.07786  0.50203  0.74236  1.0000
  N   N5        1.0  0.92582  0.01543  0.87813  1.0000
  N   N6        1.0  0.08892  0.01496  0.37803  1.0000
  N   N7        1.0  0.07419  0.98458  0.12187  1.0000
  N   N8        1.0  0.91108  0.98503  0.62197  1.0000
  N   N9        1.0  0.54535  0.79895  0.74512  1.0000
  N   N10       1.0  0.25349  0.79868  0.24504  1.0000
  N   N11       1.0  0.45465  0.20105  0.25487  1.0000
  N   N12       1.0  0.74650  0.20132  0.75496  1.0000
  N   N13       1.0  0.15707  0.76983  0.45065  1.0000
  N   N14       1.0  0.61287  0.77012  0.95062  1.0000
  N   N15       1.0  0.84294  0.23017  0.54935  1.0000
  N   N16       1.0  0.38713  0.22987  0.04938  1.0000
