data_image0
_chemical_formula_structural       K2H56C26Se2N2O12
_chemical_formula_sum              "K2 H56 C26 Se2 N2 O12"
_cell_length_a       8.73517
_cell_length_b       8.84691
_cell_length_c       13.1251
_cell_angle_alpha    109.703
_cell_angle_beta     101.255
_cell_angle_gamma    101.323

_space_group_name_H-M_alt    "P 1"
_space_group_IT_number       1

loop_
  _space_group_symop_operation_xyz
  'x, y, z'

loop_
  _atom_site_type_symbol
  _atom_site_label
  _atom_site_symmetry_multiplicity
  _atom_site_fract_x
  _atom_site_fract_y
  _atom_site_fract_z
  _atom_site_occupancy
  K   K1        1.0  0.78854  0.04174  0.69188  1.0000
  K   K2        1.0  0.21148  0.95826  0.30811  1.0000
  H   H1        1.0  0.63177  0.13088  0.97568  1.0000
  H   H2        1.0  0.36822  0.86911  0.02431  1.0000
  H   H3        1.0  0.41941  0.08335  0.90630  1.0000
  H   H4        1.0  0.58059  0.91664  0.09369  1.0000
  H   H5        1.0  0.50336  0.23977  0.78487  1.0000
  H   H6        1.0  0.49663  0.76022  0.21512  1.0000
  H   H7        1.0  0.53733  0.36559  0.93174  1.0000
  H   H8        1.0  0.46266  0.63439  0.06826  1.0000
  H   H9        1.0  0.11330  0.25948  0.59989  1.0000
  H   H10       1.0  0.88670  0.74052  0.40011  1.0000
  H   H11       1.0  0.31872  0.31248  0.68027  1.0000
  H   H12       1.0  0.68128  0.68751  0.31973  1.0000
  H   H13       1.0  0.64092  0.63849  0.53367  1.0000
  H   H14       1.0  0.35909  0.36151  0.46632  1.0000
  H   H15       1.0  0.65062  0.47041  0.58162  1.0000
  H   H16       1.0  0.34938  0.52957  0.41836  1.0000
  H   H17       1.0  0.95025  0.60230  0.67070  1.0000
  H   H18       1.0  0.04975  0.39767  0.32929  1.0000
  H   H19       1.0  0.88812  0.53452  0.52128  1.0000
  H   H20       1.0  0.11190  0.46549  0.47871  1.0000
  H   H21       1.0  0.16383  0.73716  0.57396  1.0000
  H   H22       1.0  0.83618  0.26285  0.42607  1.0000
  H   H23       1.0  0.18087  0.84356  0.72038  1.0000
  H   H24       1.0  0.81913  0.15645  0.27964  1.0000
  H   H25       1.0  0.98314  0.62576  0.83683  1.0000
  H   H26       1.0  0.01684  0.37425  0.16317  1.0000
  H   H27       1.0  0.03247  0.53429  0.93586  1.0000
  H   H28       1.0  0.96753  0.46573  0.06414  1.0000
  H   H29       1.0  0.74327  0.56680  0.89266  1.0000
  H   H30       1.0  0.25673  0.43322  0.10734  1.0000
  H   H31       1.0  0.70325  0.41139  0.75315  1.0000
  H   H32       1.0  0.29674  0.58861  0.24685  1.0000
  H   H33       1.0  0.48308  0.56184  0.71093  1.0000
  H   H34       1.0  0.51692  0.43815  0.28905  1.0000
  H   H35       1.0  0.45910  0.69899  0.63710  1.0000
  H   H36       1.0  0.54092  0.30101  0.36288  1.0000
  H   H37       1.0  0.31938  0.01967  0.62789  1.0000
  H   H38       1.0  0.68062  0.98034  0.37213  1.0000
  H   H39       1.0  0.12697  0.98348  0.53549  1.0000
  H   H40       1.0  0.87303  0.01651  0.46454  1.0000
  H   H41       1.0  0.40534  0.78827  0.83021  1.0000
  H   H42       1.0  0.59467  0.21171  0.16977  1.0000
  H   H43       1.0  0.61866  0.82945  0.89201  1.0000
  H   H44       1.0  0.38134  0.17053  0.10797  1.0000
  H   H45       1.0  0.23480  0.43489  0.85928  1.0000
  H   H46       1.0  0.76521  0.56514  0.14073  1.0000
  H   H47       1.0  0.20198  0.53752  0.76397  1.0000
  H   H48       1.0  0.79802  0.46248  0.23602  1.0000
  H   H49       1.0  0.09876  0.10844  0.84882  1.0000
  H   H50       1.0  0.90124  0.89160  0.15119  1.0000
  H   H51       1.0  0.06835  0.22830  0.96512  1.0000
  H   H52       1.0  0.93159  0.77171  0.03488  1.0000
  H   H53       1.0  0.16040  0.97349  0.97892  1.0000
  H   H54       1.0  0.83960  0.02654  0.02110  1.0000
  H   H55       1.0  0.96354  0.86165  0.88340  1.0000
  H   H56       1.0  0.03646  0.13836  0.11661  1.0000
  C   C1        1.0  0.54353  0.11143  0.89619  1.0000
  C   C2        1.0  0.45647  0.88855  0.10380  1.0000
  C   C3        1.0  0.57526  0.26793  0.87166  1.0000
  C   C4        1.0  0.42474  0.73205  0.12833  1.0000
  C   C5        1.0  0.19121  0.27967  0.68326  1.0000
  C   C6        1.0  0.80879  0.72033  0.31675  1.0000
  C   C7        1.0  0.70666  0.60392  0.59969  1.0000
  C   C8        1.0  0.29336  0.39607  0.40030  1.0000
  C   C9        1.0  0.88219  0.62711  0.60072  1.0000
  C   C10       1.0  0.11782  0.37288  0.39928  1.0000
  C   C11       1.0  0.12604  0.83393  0.63400  1.0000
  C   C12       1.0  0.87396  0.16608  0.36603  1.0000
  C   C13       1.0  0.95579  0.50819  0.85087  1.0000
  C   C14       1.0  0.04422  0.49182  0.14913  1.0000
  C   C15       1.0  0.77694  0.45658  0.84199  1.0000
  C   C16       1.0  0.22306  0.54342  0.15801  1.0000
  C   C17       1.0  0.53305  0.68744  0.71151  1.0000
  C   C18       1.0  0.46698  0.31255  0.28848  1.0000
  C   C19       1.0  0.18827  0.99482  0.62081  1.0000
  C   C20       1.0  0.81174  0.00518  0.37922  1.0000
  C   C21       1.0  0.52720  0.82130  0.81739  1.0000
  C   C22       1.0  0.47280  0.17868  0.18260  1.0000
  C   C23       1.0  0.16214  0.41850  0.77501  1.0000
  C   C24       1.0  0.83786  0.58151  0.22499  1.0000
  C   C25       1.0  0.03620  0.98380  0.95037  1.0000
  C   C26       1.0  0.96379  0.01622  0.04963  1.0000
  Se  Se1       1.0  0.46136  0.84806  0.46703  1.0000
  Se  Se2       1.0  0.53862  0.15197  0.53298  1.0000
  N   N1        1.0  0.02887  0.11089  0.90318  1.0000
  N   N2        1.0  0.97111  0.88913  0.09683  1.0000
  O   O1        1.0  0.99318  0.38005  0.76759  1.0000
  O   O2        1.0  0.00683  0.61997  0.23241  1.0000
  O   O3        1.0  0.15501  0.12945  0.70372  1.0000
  O   O4        1.0  0.84499  0.87055  0.29629  1.0000
  O   O5        1.0  0.69802  0.70979  0.70754  1.0000
  O   O6        1.0  0.30199  0.29019  0.29244  1.0000
  O   O7        1.0  0.95276  0.79302  0.61076  1.0000
  O   O8        1.0  0.04725  0.20698  0.38926  1.0000
  O   O9        1.0  0.55689  0.97692  0.80445  1.0000
  O   O10       1.0  0.44311  0.02305  0.19553  1.0000
  O   O11       1.0  0.74447  0.32584  0.88256  1.0000
  O   O12       1.0  0.25552  0.67416  0.11743  1.0000
