data_image0
_chemical_formula_structural       Zn2H26C38N6O10
_chemical_formula_sum              "Zn2 H26 C38 N6 O10"
_cell_length_a       8.36914
_cell_length_b       10.0691
_cell_length_c       11.6872
_cell_angle_alpha    113.481
_cell_angle_beta     101.763
_cell_angle_gamma    98.3758

_space_group_name_H-M_alt    "P 1"
_space_group_IT_number       1

loop_
  _space_group_symop_operation_xyz
  'x, y, z'

loop_
  _atom_site_type_symbol
  _atom_site_label
  _atom_site_symmetry_multiplicity
  _atom_site_fract_x
  _atom_site_fract_y
  _atom_site_fract_z
  _atom_site_occupancy
  Zn  Zn1       1.0  0.38617  0.65273  0.55966  1.0000
  Zn  Zn2       1.0  0.61383  0.34727  0.44034  1.0000
  H   H1        1.0  0.90603  0.17583  0.18337  1.0000
  H   H2        1.0  0.09397  0.82417  0.81663  1.0000
  H   H3        1.0  0.40869  0.70326  0.32834  1.0000
  H   H4        1.0  0.59131  0.29674  0.67166  1.0000
  H   H5        1.0  0.28239  0.58613  0.08594  1.0000
  H   H6        1.0  0.71761  0.41387  0.91405  1.0000
  H   H7        1.0  0.05670  0.34653  0.97717  1.0000
  H   H8        1.0  0.94330  0.65347  0.02283  1.0000
  H   H9        1.0  0.09928  0.36425  0.35766  1.0000
  H   H10       1.0  0.90073  0.63575  0.64234  1.0000
  H   H11       1.0  0.38145  0.60594  0.81167  1.0000
  H   H12       1.0  0.61855  0.39406  0.18833  1.0000
  H   H13       1.0  0.53078  0.74055  0.05324  1.0000
  H   H14       1.0  0.46922  0.25945  0.94676  1.0000
  H   H15       1.0  0.74458  0.98280  0.14017  1.0000
  H   H16       1.0  0.25542  0.01719  0.85983  1.0000
  H   H17       1.0  0.64685  0.93621  0.74719  1.0000
  H   H18       1.0  0.35315  0.06379  0.25281  1.0000
  H   H19       1.0  0.06248  0.39840  0.66682  1.0000
  H   H20       1.0  0.93752  0.60160  0.33318  1.0000
  H   H21       1.0  0.90793  0.23705  0.74723  1.0000
  H   H22       1.0  0.09207  0.76295  0.25277  1.0000
  H   H23       1.0  0.97955  0.00011  0.72420  1.0000
  H   H24       1.0  0.02045  0.99989  0.27580  1.0000
  H   H25       1.0  0.35043  0.07615  0.53582  1.0000
  H   H26       1.0  0.64958  0.92385  0.46418  1.0000
  C   C1        1.0  0.31213  0.59783  0.27696  1.0000
  C   C2        1.0  0.68787  0.40217  0.72304  1.0000
  C   C3        1.0  0.24116  0.53193  0.14279  1.0000
  C   C4        1.0  0.75884  0.46807  0.85721  1.0000
  C   C5        1.0  0.11392  0.39959  0.08180  1.0000
  C   C6        1.0  0.88608  0.60041  0.91820  1.0000
  C   C7        1.0  0.05878  0.33654  0.15921  1.0000
  C   C8        1.0  0.94122  0.66346  0.84079  1.0000
  C   C9        1.0  0.13901  0.40928  0.29436  1.0000
  C   C10       1.0  0.86099  0.59071  0.70564  1.0000
  C   C11       1.0  0.82982  0.12650  0.98597  1.0000
  C   C12       1.0  0.17018  0.87350  0.01403  1.0000
  C   C13       1.0  0.47727  0.71164  0.85500  1.0000
  C   C14       1.0  0.52273  0.28837  0.14500  1.0000
  C   C15       1.0  0.55988  0.78695  0.98794  1.0000
  C   C16       1.0  0.44012  0.21305  0.01206  1.0000
  C   C17       1.0  0.67958  0.92253  0.03644  1.0000
  C   C18       1.0  0.32042  0.07747  0.96356  1.0000
  C   C19       1.0  0.71136  0.98008  0.95018  1.0000
  C   C20       1.0  0.28864  0.01992  0.04982  1.0000
  C   C21       1.0  0.62403  0.89582  0.81755  1.0000
  C   C22       1.0  0.37598  0.10418  0.18245  1.0000
  C   C23       1.0  0.21663  0.24837  0.59806  1.0000
  C   C24       1.0  0.78337  0.75163  0.40194  1.0000
  C   C25       1.0  0.09292  0.29421  0.65881  1.0000
  C   C26       1.0  0.90709  0.70579  0.34119  1.0000
  C   C27       1.0  0.00751  0.20491  0.70363  1.0000
  C   C28       1.0  0.99249  0.79508  0.29637  1.0000
  C   C29       1.0  0.04765  0.07111  0.69064  1.0000
  C   C30       1.0  0.95235  0.92889  0.30936  1.0000
  C   C31       1.0  0.17307  0.02495  0.63236  1.0000
  C   C32       1.0  0.82693  0.97505  0.36764  1.0000
  C   C33       1.0  0.25613  0.11348  0.58456  1.0000
  C   C34       1.0  0.74388  0.88652  0.41544  1.0000
  C   C35       1.0  0.21434  0.88066  0.62057  1.0000
  C   C36       1.0  0.78566  0.11934  0.37943  1.0000
  C   C37       1.0  0.30367  0.34450  0.54762  1.0000
  C   C38       1.0  0.69633  0.65550  0.45238  1.0000
  N   N1        1.0  0.26266  0.53546  0.35093  1.0000
  N   N2        1.0  0.73734  0.46454  0.64907  1.0000
  N   N3        1.0  0.93221  0.20431  0.11177  1.0000
  N   N4        1.0  0.06779  0.79569  0.88823  1.0000
  N   N5        1.0  0.51065  0.76457  0.77083  1.0000
  N   N6        1.0  0.48935  0.23543  0.22917  1.0000
  O   O1        1.0  0.28631  0.47812  0.58814  1.0000
  O   O2        1.0  0.71369  0.52188  0.41186  1.0000
  O   O3        1.0  0.38646  0.28746  0.46889  1.0000
  O   O4        1.0  0.61354  0.71254  0.53111  1.0000
  O   O5        1.0  0.32512  0.84077  0.56152  1.0000
  O   O6        1.0  0.67489  0.15923  0.43848  1.0000
  O   O7        1.0  0.14213  0.80671  0.66994  1.0000
  O   O8        1.0  0.85787  0.19329  0.33006  1.0000
  O   O9        1.0  0.83241  0.17102  0.90129  1.0000
  O   O10       1.0  0.16759  0.82898  0.09871  1.0000
