data_image0
_chemical_formula_structural       Li2H24C6Se2N6
_chemical_formula_sum              "Li2 H24 C6 Se2 N6"
_cell_length_a       7.04724
_cell_length_b       6.94478
_cell_length_c       7.41593
_cell_angle_alpha    72.5788
_cell_angle_beta     86.7209
_cell_angle_gamma    89.5792

_space_group_name_H-M_alt    "P 1"
_space_group_IT_number       1

loop_
  _space_group_symop_operation_xyz
  'x, y, z'

loop_
  _atom_site_type_symbol
  _atom_site_label
  _atom_site_symmetry_multiplicity
  _atom_site_fract_x
  _atom_site_fract_y
  _atom_site_fract_z
  _atom_site_occupancy
  Li  Li1       1.0  0.18319  0.18808  0.20665  1.0000
  Li  Li2       1.0  0.81681  0.81192  0.79335  1.0000
  H   H1        1.0  0.19244  0.36103  0.88144  1.0000
  H   H2        1.0  0.80755  0.63895  0.11854  1.0000
  H   H3        1.0  0.18323  0.56366  0.95882  1.0000
  H   H4        1.0  0.81676  0.43632  0.04117  1.0000
  H   H5        1.0  0.48749  0.57110  0.78492  1.0000
  H   H6        1.0  0.51249  0.42889  0.21506  1.0000
  H   H7        1.0  0.51972  0.31818  0.92431  1.0000
  H   H8        1.0  0.48028  0.68182  0.07565  1.0000
  H   H9        1.0  0.32102  0.86036  0.25299  1.0000
  H   H10       1.0  0.67900  0.13964  0.74701  1.0000
  H   H11       1.0  0.50921  0.00344  0.18912  1.0000
  H   H12       1.0  0.49082  0.99659  0.81087  1.0000
  H   H13       1.0  0.55885  0.78744  0.50018  1.0000
  H   H14       1.0  0.44116  0.21256  0.49983  1.0000
  H   H15       1.0  0.33151  0.85700  0.57594  1.0000
  H   H16       1.0  0.66849  0.14303  0.42405  1.0000
  H   H17       1.0  0.93050  0.23320  0.40138  1.0000
  H   H18       1.0  0.06954  0.76679  0.59865  1.0000
  H   H19       1.0  0.07810  0.16501  0.57280  1.0000
  H   H20       1.0  0.92190  0.83500  0.42717  1.0000
  H   H21       1.0  0.07953  0.57257  0.29311  1.0000
  H   H22       1.0  0.92044  0.42742  0.70696  1.0000
  H   H23       1.0  0.21790  0.48928  0.49288  1.0000
  H   H24       1.0  0.78205  0.51072  0.50715  1.0000
  C   C1        1.0  0.45450  0.46230  0.92594  1.0000
  C   C2        1.0  0.54549  0.53770  0.07404  1.0000
  C   C3        1.0  0.45547  0.91157  0.47626  1.0000
  C   C4        1.0  0.54455  0.08846  0.52376  1.0000
  C   C5        1.0  0.07877  0.46950  0.43893  1.0000
  C   C6        1.0  0.92127  0.53040  0.56103  1.0000
  Se  Se1       1.0  0.87500  0.04512  0.09788  1.0000
  Se  Se2       1.0  0.12501  0.95483  0.90213  1.0000
  N   N1        1.0  0.24975  0.42759  0.97249  1.0000
  N   N2        1.0  0.75023  0.57239  0.02750  1.0000
  N   N3        1.0  0.39127  0.97533  0.28229  1.0000
  N   N4        1.0  0.60873  0.02472  0.71769  1.0000
  N   N5        1.0  0.06427  0.25990  0.43647  1.0000
  N   N6        1.0  0.93568  0.74017  0.56359  1.0000
