data_image0
_chemical_formula_structural       Zn4H16C18O18
_chemical_formula_sum              "Zn4 H16 C18 O18"
_cell_length_a       6.62952
_cell_length_b       8.83841
_cell_length_c       11.0068
_cell_angle_alpha    109.813
_cell_angle_beta     92.8712
_cell_angle_gamma    95.9505

_space_group_name_H-M_alt    "P 1"
_space_group_IT_number       1

loop_
  _space_group_symop_operation_xyz
  'x, y, z'

loop_
  _atom_site_type_symbol
  _atom_site_label
  _atom_site_symmetry_multiplicity
  _atom_site_fract_x
  _atom_site_fract_y
  _atom_site_fract_z
  _atom_site_occupancy
  Zn  Zn1       1.0  0.26330  0.67986  0.92608  1.0000
  Zn  Zn2       1.0  0.73670  0.32014  0.07392  1.0000
  Zn  Zn3       1.0  0.41222  0.03348  0.87332  1.0000
  Zn  Zn4       1.0  0.58778  0.96652  0.12668  1.0000
  H   H1        1.0  0.99775  0.40800  0.86556  1.0000
  H   H2        1.0  0.00225  0.59200  0.13443  1.0000
  H   H3        1.0  0.11418  0.43796  0.75204  1.0000
  H   H4        1.0  0.88582  0.56204  0.24795  1.0000
  H   H5        1.0  0.40922  0.82415  0.46437  1.0000
  H   H6        1.0  0.59078  0.17586  0.53563  1.0000
  H   H7        1.0  0.15972  0.23369  0.30720  1.0000
  H   H8        1.0  0.84029  0.76631  0.69280  1.0000
  H   H9        1.0  0.19039  0.39408  0.54265  1.0000
  H   H10       1.0  0.80962  0.60591  0.45735  1.0000
  H   H11       1.0  0.08790  0.15255  0.91525  1.0000
  H   H12       1.0  0.91210  0.84745  0.08475  1.0000
  H   H13       1.0  0.14094  0.14483  0.77703  1.0000
  H   H14       1.0  0.85906  0.85517  0.22297  1.0000
  H   H15       1.0  0.20369  0.96980  0.05785  1.0000
  H   H16       1.0  0.79631  0.03019  0.94215  1.0000
  C   C1        1.0  0.30235  0.61890  0.51879  1.0000
  C   C2        1.0  0.69765  0.38110  0.48121  1.0000
  C   C3        1.0  0.33418  0.60611  0.29684  1.0000
  C   C4        1.0  0.66582  0.39389  0.70316  1.0000
  C   C5        1.0  0.26611  0.43856  0.25264  1.0000
  C   C6        1.0  0.73389  0.56145  0.74736  1.0000
  C   C7        1.0  0.36768  0.69190  0.20169  1.0000
  C   C8        1.0  0.63227  0.30807  0.79830  1.0000
  C   C9        1.0  0.35483  0.69479  0.42994  1.0000
  C   C10       1.0  0.64517  0.30521  0.57006  1.0000
  C   C11       1.0  0.21346  0.36312  0.34171  1.0000
  C   C12       1.0  0.78655  0.63688  0.65829  1.0000
  C   C13       1.0  0.23036  0.45304  0.47343  1.0000
  C   C14       1.0  0.76966  0.54696  0.52657  1.0000
  C   C15       1.0  0.25015  0.33266  0.11235  1.0000
  C   C16       1.0  0.74985  0.66734  0.88765  1.0000
  C   C17       1.0  0.32426  0.71189  0.66154  1.0000
  C   C18       1.0  0.67576  0.28813  0.33846  1.0000
  O   O1        1.0  0.31875  0.92876  0.01105  1.0000
  O   O2        1.0  0.68124  0.07124  0.98895  1.0000
  O   O3        1.0  0.24184  0.63971  0.73264  1.0000
  O   O4        1.0  0.75816  0.36028  0.26736  1.0000
  O   O5        1.0  0.41025  0.30242  0.05469  1.0000
  O   O6        1.0  0.58975  0.69759  0.94531  1.0000
  O   O7        1.0  0.13624  0.42305  0.83573  1.0000
  O   O8        1.0  0.86375  0.57694  0.16426  1.0000
  O   O9        1.0  0.42273  0.85323  0.70156  1.0000
  O   O10       1.0  0.57726  0.14676  0.29844  1.0000
  O   O11       1.0  0.50469  0.81084  0.22988  1.0000
  O   O12       1.0  0.49533  0.18919  0.77013  1.0000
  O   O13       1.0  0.24308  0.63666  0.09781  1.0000
  O   O14       1.0  0.75693  0.36334  0.90219  1.0000
  O   O15       1.0  0.11184  0.07318  0.82687  1.0000
  O   O16       1.0  0.88816  0.92682  0.17313  1.0000
  O   O17       1.0  0.07236  0.26606  0.05887  1.0000
  O   O18       1.0  0.92765  0.73394  0.94113  1.0000
