data_image0
_chemical_formula_structural       Zn2H44C32N6O16
_chemical_formula_sum              "Zn2 H44 C32 N6 O16"
_cell_length_a       6.79898
_cell_length_b       9.74063
_cell_length_c       15.0775
_cell_angle_alpha    96.2985
_cell_angle_beta     93.6107
_cell_angle_gamma    105.153

_space_group_name_H-M_alt    "P 1"
_space_group_IT_number       1

loop_
  _space_group_symop_operation_xyz
  'x, y, z'

loop_
  _atom_site_type_symbol
  _atom_site_label
  _atom_site_symmetry_multiplicity
  _atom_site_fract_x
  _atom_site_fract_y
  _atom_site_fract_z
  _atom_site_occupancy
  Zn  Zn1       1.0  0.87151  0.29730  0.12671  1.0000
  Zn  Zn2       1.0  0.12849  0.70269  0.87329  1.0000
  H   H1        1.0  0.64413  0.20860  0.97809  1.0000
  H   H2        1.0  0.35587  0.79139  0.02191  1.0000
  H   H3        1.0  0.66800  0.38089  0.00909  1.0000
  H   H4        1.0  0.33201  0.61911  0.99092  1.0000
  H   H5        1.0  0.23112  0.36936  0.08234  1.0000
  H   H6        1.0  0.76888  0.63063  0.91766  1.0000
  H   H7        1.0  0.18710  0.22653  0.13618  1.0000
  H   H8        1.0  0.81291  0.77346  0.86382  1.0000
  H   H9        1.0  0.71916  0.81189  0.03465  1.0000
  H   H10       1.0  0.28085  0.18810  0.96535  1.0000
  H   H11       1.0  0.09827  0.79180  0.15088  1.0000
  H   H12       1.0  0.90175  0.20819  0.84912  1.0000
  H   H13       1.0  0.46915  0.15828  0.19016  1.0000
  H   H14       1.0  0.53085  0.84172  0.80984  1.0000
  H   H15       1.0  0.31729  0.13779  0.33516  1.0000
  H   H16       1.0  0.68269  0.86221  0.66483  1.0000
  H   H17       1.0  0.90744  0.38662  0.46660  1.0000
  H   H18       1.0  0.09256  0.61337  0.53340  1.0000
  H   H19       1.0  0.03647  0.39694  0.31670  1.0000
  H   H20       1.0  0.96352  0.60305  0.68330  1.0000
  H   H21       1.0  0.07015  0.98361  0.61585  1.0000
  H   H22       1.0  0.92985  0.01639  0.38416  1.0000
  H   H23       1.0  0.15900  0.09152  0.72074  1.0000
  H   H24       1.0  0.84100  0.90849  0.27927  1.0000
  H   H25       1.0  0.31788  0.99470  0.66770  1.0000
  H   H26       1.0  0.68213  0.00532  0.33231  1.0000
  H   H27       1.0  0.18362  0.34791  0.54767  1.0000
  H   H28       1.0  0.81637  0.65209  0.45233  1.0000
  H   H29       1.0  0.06032  0.29214  0.64351  1.0000
  H   H30       1.0  0.93967  0.70787  0.35650  1.0000
  H   H31       1.0  0.99857  0.17673  0.54009  1.0000
  H   H32       1.0  0.00142  0.82327  0.45991  1.0000
  H   H33       1.0  0.66785  0.13684  0.65671  1.0000
  H   H34       1.0  0.33214  0.86317  0.34330  1.0000
  H   H35       1.0  0.57120  0.17947  0.76043  1.0000
  H   H36       1.0  0.42880  0.82055  0.23958  1.0000
  H   H37       1.0  0.78060  0.30584  0.72492  1.0000
  H   H38       1.0  0.21940  0.69418  0.27508  1.0000
  H   H39       1.0  0.59761  0.48886  0.74882  1.0000
  H   H40       1.0  0.40240  0.51116  0.25118  1.0000
  H   H41       1.0  0.36518  0.37113  0.77214  1.0000
  H   H42       1.0  0.63482  0.62889  0.22787  1.0000
  H   H43       1.0  0.36458  0.47711  0.68377  1.0000
  H   H44       1.0  0.63542  0.52291  0.31622  1.0000
  C   C1        1.0  0.94393  0.00588  0.10452  1.0000
  C   C2        1.0  0.05608  0.99411  0.89549  1.0000
  C   C3        1.0  0.86330  0.84805  0.07748  1.0000
  C   C4        1.0  0.13673  0.15193  0.92252  1.0000
  C   C5        1.0  0.95787  0.75382  0.10558  1.0000
  C   C6        1.0  0.04214  0.24617  0.89442  1.0000
  C   C7        1.0  0.87363  0.59589  0.08313  1.0000
  C   C8        1.0  0.12639  0.40409  0.91687  1.0000
  C   C9        1.0  0.56077  0.20798  0.25296  1.0000
  C   C10       1.0  0.43924  0.79202  0.74704  1.0000
  C   C11       1.0  0.47664  0.19654  0.33427  1.0000
  C   C12       1.0  0.52334  0.80347  0.66572  1.0000
  C   C13       1.0  0.60131  0.26040  0.41383  1.0000
  C   C14       1.0  0.39870  0.73960  0.58615  1.0000
  C   C15       1.0  0.80568  0.33449  0.40728  1.0000
  C   C16       1.0  0.19432  0.66551  0.59272  1.0000
  C   C17       1.0  0.87807  0.34056  0.32345  1.0000
  C   C18       1.0  0.12192  0.65943  0.67654  1.0000
  C   C19       1.0  0.52205  0.25012  0.50075  1.0000
  C   C20       1.0  0.47793  0.74988  0.49925  1.0000
  C   C21       1.0  0.29083  0.18353  0.60825  1.0000
  C   C22       1.0  0.70916  0.81648  0.39174  1.0000
  C   C23       1.0  0.48834  0.29401  0.65544  1.0000
  C   C24       1.0  0.51167  0.70600  0.34455  1.0000
  C   C25       1.0  0.20586  0.05487  0.65597  1.0000
  C   C26       1.0  0.79413  0.94515  0.34404  1.0000
  C   C27       1.0  0.12296  0.25525  0.58291  1.0000
  C   C28       1.0  0.87702  0.74476  0.41709  1.0000
  C   C29       1.0  0.63691  0.22374  0.70161  1.0000
  C   C30       1.0  0.36309  0.77627  0.29840  1.0000
  C   C31       1.0  0.45211  0.41575  0.71818  1.0000
  C   C32       1.0  0.54789  0.58426  0.28182  1.0000
  N   N1        1.0  0.75767  0.27856  0.24765  1.0000
  N   N2        1.0  0.24233  0.72143  0.75234  1.0000
  N   N3        1.0  0.36869  0.13942  0.52052  1.0000
  N   N4        1.0  0.63131  0.86061  0.47948  1.0000
  N   N5        1.0  0.58604  0.34933  0.57409  1.0000
  N   N6        1.0  0.41395  0.65066  0.42590  1.0000
  O   O1        1.0  0.81527  0.07791  0.08835  1.0000
  O   O2        1.0  0.18473  0.92207  0.91166  1.0000
  O   O3        1.0  0.12659  0.05733  0.13977  1.0000
  O   O4        1.0  0.87342  0.94266  0.86023  1.0000
  O   O5        1.0  0.93064  0.52109  0.13881  1.0000
  O   O6        1.0  0.06936  0.47890  0.86120  1.0000
  O   O7        1.0  0.75075  0.54543  0.01223  1.0000
  O   O8        1.0  0.24926  0.45456  0.98778  1.0000
  O   O9        1.0  0.27853  0.02442  0.46853  1.0000
  O   O10       1.0  0.72142  0.97559  0.53147  1.0000
  O   O11       1.0  0.71984  0.47064  0.57873  1.0000
  O   O12       1.0  0.28017  0.52936  0.42127  1.0000
  O   O13       1.0  0.63660  0.27935  0.02770  1.0000
  O   O14       1.0  0.36340  0.72064  0.97230  1.0000
  O   O15       1.0  0.18202  0.33027  0.13800  1.0000
  O   O16       1.0  0.81799  0.66972  0.86200  1.0000
