data_image0
_chemical_formula_structural       Cu4H20C32N8O8
_chemical_formula_sum              "Cu4 H20 C32 N8 O8"
_cell_length_a       7.14831
_cell_length_b       7.67474
_cell_length_c       12.8934
_cell_angle_alpha    90
_cell_angle_beta     101.805
_cell_angle_gamma    89.9997

_space_group_name_H-M_alt    "P 1"
_space_group_IT_number       1

loop_
  _space_group_symop_operation_xyz
  'x, y, z'

loop_
  _atom_site_type_symbol
  _atom_site_label
  _atom_site_symmetry_multiplicity
  _atom_site_fract_x
  _atom_site_fract_y
  _atom_site_fract_z
  _atom_site_occupancy
  Cu  Cu1       1.0  0.55242  0.03139  0.09803  1.0000
  Cu  Cu2       1.0  0.44758  0.53140  0.40196  1.0000
  Cu  Cu3       1.0  0.44756  0.96860  0.90196  1.0000
  Cu  Cu4       1.0  0.55242  0.46861  0.59804  1.0000
  H   H1        1.0  0.16152  0.43527  0.78468  1.0000
  H   H2        1.0  0.83843  0.93528  0.71533  1.0000
  H   H3        1.0  0.83846  0.56474  0.21532  1.0000
  H   H4        1.0  0.16158  0.06475  0.28468  1.0000
  H   H5        1.0  0.00732  0.72580  0.75675  1.0000
  H   H6        1.0  0.99266  0.22581  0.74326  1.0000
  H   H7        1.0  0.99268  0.27420  0.24325  1.0000
  H   H8        1.0  0.00736  0.77421  0.25673  1.0000
  H   H9        1.0  0.01273  0.92524  0.91056  1.0000
  H   H10       1.0  0.98729  0.42522  0.58945  1.0000
  H   H11       1.0  0.98728  0.07477  0.08945  1.0000
  H   H12       1.0  0.01273  0.57478  0.41054  1.0000
  H   H13       1.0  0.16922  0.82724  0.09336  1.0000
  H   H14       1.0  0.83084  0.32722  0.40664  1.0000
  H   H15       1.0  0.83079  0.17275  0.90664  1.0000
  H   H16       1.0  0.16916  0.67277  0.59335  1.0000
  H   H17       1.0  0.47706  0.30226  0.22296  1.0000
  H   H18       1.0  0.52298  0.80226  0.27704  1.0000
  H   H19       1.0  0.52294  0.69772  0.77704  1.0000
  H   H20       1.0  0.47703  0.19773  0.72296  1.0000
  C   C1        1.0  0.15770  0.52117  0.85130  1.0000
  C   C2        1.0  0.84228  0.02118  0.64872  1.0000
  C   C3        1.0  0.84229  0.47883  0.14871  1.0000
  C   C4        1.0  0.15772  0.97884  0.35129  1.0000
  C   C5        1.0  0.07423  0.68450  0.83639  1.0000
  C   C6        1.0  0.92577  0.18449  0.66362  1.0000
  C   C7        1.0  0.92578  0.31549  0.16361  1.0000
  C   C8        1.0  0.07425  0.81552  0.33638  1.0000
  C   C9        1.0  0.07766  0.79647  0.92312  1.0000
  C   C10       1.0  0.92235  0.29646  0.57689  1.0000
  C   C11       1.0  0.92233  0.20354  0.07688  1.0000
  C   C12       1.0  0.07767  0.70354  0.42310  1.0000
  C   C13       1.0  0.16298  0.74289  0.02477  1.0000
  C   C14       1.0  0.83704  0.24288  0.47524  1.0000
  C   C15       1.0  0.83701  0.25710  0.97523  1.0000
  C   C16       1.0  0.16296  0.75712  0.52476  1.0000
  C   C17       1.0  0.24479  0.57628  0.04072  1.0000
  C   C18       1.0  0.75523  0.07628  0.45928  1.0000
  C   C19       1.0  0.75520  0.42372  0.95929  1.0000
  C   C20       1.0  0.24477  0.92372  0.54072  1.0000
  C   C21       1.0  0.24169  0.46387  0.95368  1.0000
  C   C22       1.0  0.75829  0.96387  0.54633  1.0000
  C   C23       1.0  0.75830  0.53612  0.04632  1.0000
  C   C24       1.0  0.24170  0.03613  0.45368  1.0000
  C   C25       1.0  0.32614  0.29073  0.97071  1.0000
  C   C26       1.0  0.67384  0.79074  0.52929  1.0000
  C   C27       1.0  0.67384  0.70926  0.02929  1.0000
  C   C28       1.0  0.32615  0.20927  0.47071  1.0000
  C   C29       1.0  0.33783  0.51802  0.14627  1.0000
  C   C30       1.0  0.66221  0.01799  0.35375  1.0000
  C   C31       1.0  0.66218  0.48198  0.85374  1.0000
  C   C32       1.0  0.33779  0.98200  0.64625  1.0000
  N   N1        1.0  0.40573  0.23935  0.06909  1.0000
  N   N2        1.0  0.59427  0.73937  0.43091  1.0000
  N   N3        1.0  0.59425  0.76063  0.93090  1.0000
  N   N4        1.0  0.40572  0.26064  0.56909  1.0000
  N   N5        1.0  0.40631  0.35329  0.15181  1.0000
  N   N6        1.0  0.59372  0.85330  0.34819  1.0000
  N   N7        1.0  0.59369  0.64670  0.84818  1.0000
  N   N8        1.0  0.40628  0.14671  0.65182  1.0000
  O   O1        1.0  0.32368  0.18935  0.89028  1.0000
  O   O2        1.0  0.67629  0.68936  0.60973  1.0000
  O   O3        1.0  0.67631  0.81064  0.10972  1.0000
  O   O4        1.0  0.32370  0.31065  0.39028  1.0000
  O   O5        1.0  0.35663  0.61265  0.22816  1.0000
  O   O6        1.0  0.64343  0.11266  0.27183  1.0000
  O   O7        1.0  0.64340  0.38734  0.77184  1.0000
  O   O8        1.0  0.35658  0.88734  0.72817  1.0000
