data_image0
_chemical_formula_structural       Zn2H24C38N6O10
_chemical_formula_sum              "Zn2 H24 C38 N6 O10"
_cell_length_a       6.86668
_cell_length_b       9.24548
_cell_length_c       13.7642
_cell_angle_alpha    92.6849
_cell_angle_beta     103.079
_cell_angle_gamma    100.944

_space_group_name_H-M_alt    "P 1"
_space_group_IT_number       1

loop_
  _space_group_symop_operation_xyz
  'x, y, z'

loop_
  _atom_site_type_symbol
  _atom_site_label
  _atom_site_symmetry_multiplicity
  _atom_site_fract_x
  _atom_site_fract_y
  _atom_site_fract_z
  _atom_site_occupancy
  Zn  Zn1       1.0  0.41177  0.67082  0.21172  1.0000
  Zn  Zn2       1.0  0.58823  0.32918  0.78829  1.0000
  H   H1        1.0  0.18807  0.36191  0.56861  1.0000
  H   H2        1.0  0.81192  0.63809  0.43139  1.0000
  H   H3        1.0  0.43485  0.98405  0.42365  1.0000
  H   H4        1.0  0.56516  0.01595  0.57635  1.0000
  H   H5        1.0  0.41305  0.21326  0.52018  1.0000
  H   H6        1.0  0.58696  0.78675  0.47982  1.0000
  H   H7        1.0  0.77160  0.14214  0.37285  1.0000
  H   H8        1.0  0.22840  0.85786  0.62715  1.0000
  H   H9        1.0  0.40087  0.89422  0.05301  1.0000
  H   H10       1.0  0.59913  0.10577  0.94699  1.0000
  H   H11       1.0  0.29522  0.87682  0.86298  1.0000
  H   H12       1.0  0.70479  0.12317  0.13702  1.0000
  H   H13       1.0  0.16788  0.62378  0.76999  1.0000
  H   H14       1.0  0.83213  0.37621  0.23001  1.0000
  H   H15       1.0  0.14599  0.40218  0.86590  1.0000
  H   H16       1.0  0.85401  0.59782  0.13410  1.0000
  H   H17       1.0  0.13264  0.23003  0.95526  1.0000
  H   H18       1.0  0.86736  0.76996  0.04474  1.0000
  H   H19       1.0  0.15408  0.03332  0.07498  1.0000
  H   H20       1.0  0.84592  0.96668  0.92502  1.0000
  H   H21       1.0  0.30499  0.10786  0.25637  1.0000
  H   H22       1.0  0.69501  0.89213  0.74363  1.0000
  H   H23       1.0  0.41374  0.37713  0.31621  1.0000
  H   H24       1.0  0.58625  0.62286  0.68379  1.0000
  C   C1        1.0  0.73530  0.87977  0.27492  1.0000
  C   C2        1.0  0.26469  0.12023  0.72509  1.0000
  C   C3        1.0  0.92961  0.97539  0.33602  1.0000
  C   C4        1.0  0.07039  0.02461  0.66398  1.0000
  C   C5        1.0  0.11801  0.93093  0.34919  1.0000
  C   C6        1.0  0.88199  0.06908  0.65081  1.0000
  C   C7        1.0  0.28901  0.01734  0.41634  1.0000
  C   C8        1.0  0.71099  0.98267  0.58366  1.0000
  C   C9        1.0  0.27783  0.14736  0.46785  1.0000
  C   C10       1.0  0.72217  0.85265  0.53215  1.0000
  C   C11       1.0  0.09180  0.19495  0.45034  1.0000
  C   C12       1.0  0.90819  0.80505  0.54966  1.0000
  C   C13       1.0  0.91758  0.10800  0.38487  1.0000
  C   C14       1.0  0.08242  0.89200  0.61513  1.0000
  C   C15       1.0  0.15219  0.81387  0.27957  1.0000
  C   C16       1.0  0.84781  0.18613  0.72042  1.0000
  C   C17       1.0  0.96998  0.42746  0.46544  1.0000
  C   C18       1.0  0.03000  0.57255  0.53455  1.0000
  C   C19       1.0  0.34158  0.78874  0.00739  1.0000
  C   C20       1.0  0.65842  0.21126  0.99261  1.0000
  C   C21       1.0  0.28242  0.77774  0.90320  1.0000
  C   C22       1.0  0.71759  0.22226  0.09680  1.0000
  C   C23       1.0  0.21217  0.63700  0.85171  1.0000
  C   C24       1.0  0.78784  0.36300  0.14829  1.0000
  C   C25       1.0  0.20242  0.51258  0.90529  1.0000
  C   C26       1.0  0.79759  0.48742  0.09471  1.0000
  C   C27       1.0  0.26406  0.53210  0.00994  1.0000
  C   C28       1.0  0.73594  0.46790  0.99007  1.0000
  C   C29       1.0  0.26369  0.40766  0.07395  1.0000
  C   C30       1.0  0.73631  0.59234  0.92604  1.0000
  C   C31       1.0  0.19561  0.25931  0.03533  1.0000
  C   C32       1.0  0.80439  0.74068  0.96467  1.0000
  C   C33       1.0  0.20726  0.15017  0.10159  1.0000
  C   C34       1.0  0.79275  0.84983  0.89841  1.0000
  C   C35       1.0  0.28841  0.19056  0.20352  1.0000
  C   C36       1.0  0.71159  0.80944  0.79648  1.0000
  C   C37       1.0  0.34950  0.34004  0.23707  1.0000
  C   C38       1.0  0.65049  0.65996  0.76293  1.0000
  N   N1        1.0  0.08794  0.33024  0.49995  1.0000
  N   N2        1.0  0.91206  0.66976  0.50005  1.0000
  N   N3        1.0  0.33260  0.66915  0.05902  1.0000
  N   N4        1.0  0.66740  0.33084  0.94098  1.0000
  N   N5        1.0  0.33621  0.44571  0.17380  1.0000
  N   N6        1.0  0.66379  0.55429  0.82619  1.0000
  O   O1        1.0  0.60348  0.93640  0.21944  1.0000
  O   O2        1.0  0.39652  0.06360  0.78056  1.0000
  O   O3        1.0  0.70649  0.73954  0.28734  1.0000
  O   O4        1.0  0.29351  0.26046  0.71266  1.0000
  O   O5        1.0  0.06681  0.80665  0.18822  1.0000
  O   O6        1.0  0.93319  0.19335  0.81178  1.0000
  O   O7        1.0  0.28526  0.73645  0.31717  1.0000
  O   O8        1.0  0.71473  0.26356  0.68283  1.0000
  O   O9        1.0  0.83118  0.40941  0.38783  1.0000
  O   O10       1.0  0.16882  0.59059  0.61217  1.0000
