data_image0
_chemical_formula_structural       FeH24C36S4N12Cl2
_chemical_formula_sum              "Fe1 H24 C36 S4 N12 Cl2"
_cell_length_a       8.78561
_cell_length_b       9.15929
_cell_length_c       13.5196
_cell_angle_alpha    97.7957
_cell_angle_beta     107.029
_cell_angle_gamma    97.0038

_space_group_name_H-M_alt    "P 1"
_space_group_IT_number       1

loop_
  _space_group_symop_operation_xyz
  'x, y, z'

loop_
  _atom_site_type_symbol
  _atom_site_label
  _atom_site_symmetry_multiplicity
  _atom_site_fract_x
  _atom_site_fract_y
  _atom_site_fract_z
  _atom_site_occupancy
  Fe  Fe1       1.0  0.50586  0.50003  0.48851  1.0000
  H   H1        1.0  0.04064  0.63466  0.21465  1.0000
  H   H2        1.0  0.95118  0.36501  0.78333  1.0000
  H   H3        1.0  0.23123  0.47631  0.29863  1.0000
  H   H4        1.0  0.77077  0.52356  0.68903  1.0000
  H   H5        1.0  0.44594  0.80857  0.56152  1.0000
  H   H6        1.0  0.56656  0.18298  0.43044  1.0000
  H   H7        1.0  0.25312  0.97829  0.49004  1.0000
  H   H8        1.0  0.75338  0.01461  0.51073  1.0000
  H   H9        1.0  0.85441  0.19745  0.36420  1.0000
  H   H10       1.0  0.15088  0.80398  0.63850  1.0000
  H   H11       1.0  0.73459  0.16088  0.16775  1.0000
  H   H12       1.0  0.27168  0.84297  0.83524  1.0000
  H   H13       1.0  0.76847  0.26283  0.87727  1.0000
  H   H14       1.0  0.22376  0.73639  0.12424  1.0000
  H   H15       1.0  0.63352  0.23833  0.01482  1.0000
  H   H16       1.0  0.35990  0.76283  0.98696  1.0000
  H   H17       1.0  0.51656  0.24805  0.13518  1.0000
  H   H18       1.0  0.49753  0.74879  0.87592  1.0000
  H   H19       1.0  0.45938  0.26385  0.30319  1.0000
  H   H20       1.0  0.56006  0.73213  0.70672  1.0000
  H   H21       1.0  0.64539  0.71736  0.38784  1.0000
  H   H22       1.0  0.32781  0.29367  0.60585  1.0000
  H   H23       1.0  0.71049  0.71972  0.22066  1.0000
  H   H24       1.0  0.26286  0.28808  0.77542  1.0000
  C   C1        1.0  0.12686  0.67713  0.29244  1.0000
  C   C2        1.0  0.87027  0.32079  0.70411  1.0000
  C   C3        1.0  0.23402  0.58833  0.33847  1.0000
  C   C4        1.0  0.76835  0.40979  0.65236  1.0000
  C   C5        1.0  0.35028  0.77282  0.48671  1.0000
  C   C6        1.0  0.65849  0.22143  0.50651  1.0000
  C   C7        1.0  0.24512  0.86715  0.44626  1.0000
  C   C8        1.0  0.75960  0.12703  0.55197  1.0000
  C   C9        1.0  0.13159  0.82027  0.34594  1.0000
  C   C10       1.0  0.86839  0.17650  0.65358  1.0000
  C   C11       1.0  0.02165  0.91785  0.29669  1.0000
  C   C12       1.0  0.97874  0.08048  0.70499  1.0000
  C   C13       1.0  0.88310  0.10929  0.31302  1.0000
  C   C14       1.0  0.12099  0.89147  0.68952  1.0000
  C   C15       1.0  0.81633  0.08959  0.20425  1.0000
  C   C16       1.0  0.18772  0.91227  0.79833  1.0000
  C   C17       1.0  0.86212  0.97439  0.14568  1.0000
  C   C18       1.0  0.13975  0.02649  0.85642  1.0000
  C   C19       1.0  0.79627  0.61339  0.97285  1.0000
  C   C20       1.0  0.20161  0.38626  0.02955  1.0000
  C   C21       1.0  0.75560  0.36163  0.92742  1.0000
  C   C22       1.0  0.23865  0.63819  0.07450  1.0000
  C   C23       1.0  0.68235  0.34833  0.00487  1.0000
  C   C24       1.0  0.31265  0.65260  0.99735  1.0000
  C   C25       1.0  0.67845  0.48035  0.06999  1.0000
  C   C26       1.0  0.31800  0.52104  0.93307  1.0000
  C   C27       1.0  0.62719  0.48253  0.16408  1.0000
  C   C28       1.0  0.36920  0.51961  0.83818  1.0000
  C   C29       1.0  0.55421  0.35432  0.18992  1.0000
  C   C30       1.0  0.45371  0.64586  0.81784  1.0000
  C   C31       1.0  0.52205  0.36106  0.28456  1.0000
  C   C32       1.0  0.48854  0.63816  0.72348  1.0000
  C   C33       1.0  0.62002  0.61583  0.32964  1.0000
  C   C34       1.0  0.36350  0.39110  0.66886  1.0000
  C   C35       1.0  0.65638  0.61599  0.23687  1.0000
  C   C36       1.0  0.32669  0.38904  0.76187  1.0000
  S   S1        1.0  0.76681  0.93861  0.00716  1.0000
  S   S2        1.0  0.23603  0.06338  0.99484  1.0000
  S   S3        1.0  0.87759  0.78561  0.94509  1.0000
  S   S4        1.0  0.12319  0.21372  0.05747  1.0000
  N   N1        1.0  0.34714  0.63443  0.43432  1.0000
  N   N2        1.0  0.66229  0.36251  0.55426  1.0000
  N   N3        1.0  0.98312  0.02254  0.36036  1.0000
  N   N4        1.0  0.01932  0.97663  0.64189  1.0000
  N   N5        1.0  0.96640  0.89095  0.19026  1.0000
  N   N6        1.0  0.03356  0.10826  0.81145  1.0000
  N   N7        1.0  0.81646  0.49485  0.91104  1.0000
  N   N8        1.0  0.17953  0.50460  0.09057  1.0000
  N   N9        1.0  0.73257  0.61491  0.05037  1.0000
  N   N10       1.0  0.26552  0.38615  0.95200  1.0000
  N   N11       1.0  0.55656  0.48929  0.35704  1.0000
  N   N12       1.0  0.44191  0.51403  0.64917  1.0000
  Cl  Cl1       1.0  0.70815  0.70761  0.57151  1.0000
  Cl  Cl2       1.0  0.29944  0.29225  0.42245  1.0000
