data_image0
_chemical_formula_structural       Ag4H32C16S8N4O12
_chemical_formula_sum              "Ag4 H32 C16 S8 N4 O12"
_cell_length_a       7.08559
_cell_length_b       7.81832
_cell_length_c       15.7123
_cell_angle_alpha    89.9972
_cell_angle_beta     93.095
_cell_angle_gamma    89.9991

_space_group_name_H-M_alt    "P 1"
_space_group_IT_number       1

loop_
  _space_group_symop_operation_xyz
  'x, y, z'

loop_
  _atom_site_type_symbol
  _atom_site_label
  _atom_site_symmetry_multiplicity
  _atom_site_fract_x
  _atom_site_fract_y
  _atom_site_fract_z
  _atom_site_occupancy
  Ag  Ag1       1.0  0.20070  0.95356  0.99947  1.0000
  Ag  Ag2       1.0  0.70068  0.54644  0.49948  1.0000
  Ag  Ag3       1.0  0.79933  0.04645  0.00053  1.0000
  Ag  Ag4       1.0  0.29931  0.45354  0.50053  1.0000
  H   H1        1.0  0.90590  0.87638  0.80333  1.0000
  H   H2        1.0  0.40590  0.62360  0.30332  1.0000
  H   H3        1.0  0.09410  0.12361  0.19668  1.0000
  H   H4        1.0  0.59412  0.37641  0.69668  1.0000
  H   H5        1.0  0.96275  0.05053  0.73323  1.0000
  H   H6        1.0  0.46277  0.44945  0.23322  1.0000
  H   H7        1.0  0.03724  0.94945  0.26678  1.0000
  H   H8        1.0  0.53724  0.55056  0.76678  1.0000
  H   H9        1.0  0.90414  0.38146  0.77998  1.0000
  H   H10       1.0  0.40417  0.11854  0.27998  1.0000
  H   H11       1.0  0.09585  0.61853  0.22002  1.0000
  H   H12       1.0  0.59584  0.88150  0.72001  1.0000
  H   H13       1.0  0.81068  0.43561  0.87883  1.0000
  H   H14       1.0  0.31070  0.06435  0.37882  1.0000
  H   H15       1.0  0.18932  0.56439  0.12117  1.0000
  H   H16       1.0  0.68929  0.93565  0.62116  1.0000
  H   H17       1.0  0.10221  0.31087  0.95633  1.0000
  H   H18       1.0  0.60221  0.18912  0.45635  1.0000
  H   H19       1.0  0.89780  0.68915  0.04365  1.0000
  H   H20       1.0  0.39779  0.81086  0.54365  1.0000
  H   H21       1.0  0.15521  0.48222  0.88810  1.0000
  H   H22       1.0  0.65522  0.01777  0.38812  1.0000
  H   H23       1.0  0.84479  0.51778  0.11189  1.0000
  H   H24       1.0  0.34476  0.98222  0.61187  1.0000
  H   H25       1.0  0.38599  0.25332  0.87230  1.0000
  H   H26       1.0  0.88600  0.24668  0.37231  1.0000
  H   H27       1.0  0.61401  0.74668  0.12770  1.0000
  H   H28       1.0  0.11401  0.75329  0.62768  1.0000
  H   H29       1.0  0.24455  0.27349  0.77516  1.0000
  H   H30       1.0  0.74458  0.22651  0.27517  1.0000
  H   H31       1.0  0.75544  0.72649  0.22483  1.0000
  H   H32       1.0  0.25542  0.77349  0.72482  1.0000
  C   C1        1.0  0.95727  0.00832  0.79993  1.0000
  C   C2        1.0  0.45727  0.49167  0.29993  1.0000
  C   C3        1.0  0.04273  0.99167  0.20009  1.0000
  C   C4        1.0  0.54274  0.50834  0.70008  1.0000
  C   C5        1.0  0.90427  0.34598  0.84776  1.0000
  C   C6        1.0  0.40430  0.15400  0.34776  1.0000
  C   C7        1.0  0.09573  0.65401  0.15224  1.0000
  C   C8        1.0  0.59572  0.84601  0.65223  1.0000
  C   C9        1.0  0.10333  0.34966  0.88890  1.0000
  C   C10       1.0  0.60335  0.15034  0.38891  1.0000
  C   C11       1.0  0.89667  0.65035  0.11109  1.0000
  C   C12       1.0  0.39666  0.84965  0.61108  1.0000
  C   C13       1.0  0.24288  0.23960  0.84303  1.0000
  C   C14       1.0  0.74291  0.26038  0.34304  1.0000
  C   C15       1.0  0.75711  0.76037  0.15697  1.0000
  C   C16       1.0  0.25709  0.73962  0.65695  1.0000
  S   S1        1.0  0.19542  0.01142  0.84681  1.0000
  S   S2        1.0  0.69541  0.48857  0.34681  1.0000
  S   S3        1.0  0.80459  0.98858  0.15320  1.0000
  S   S4        1.0  0.30460  0.51143  0.65319  1.0000
  S   S5        1.0  0.78816  0.13881  0.85184  1.0000
  S   S6        1.0  0.28817  0.36116  0.35183  1.0000
  S   S7        1.0  0.21184  0.86118  0.14817  1.0000
  S   S8        1.0  0.71184  0.63885  0.64816  1.0000
  N   N1        1.0  0.44048  0.27861  0.08327  1.0000
  N   N2        1.0  0.94046  0.22140  0.58328  1.0000
  N   N3        1.0  0.55949  0.72140  0.91674  1.0000
  N   N4        1.0  0.05950  0.77863  0.41672  1.0000
  O   O1        1.0  0.46731  0.18408  0.01843  1.0000
  O   O2        1.0  0.96729  0.31593  0.51842  1.0000
  O   O3        1.0  0.53270  0.81592  0.98159  1.0000
  O   O4        1.0  0.03270  0.68402  0.48159  1.0000
  O   O5        1.0  0.28012  0.27732  0.11551  1.0000
  O   O6        1.0  0.78011  0.22271  0.61552  1.0000
  O   O7        1.0  0.71990  0.72272  0.88449  1.0000
  O   O8        1.0  0.21986  0.77728  0.38447  1.0000
  O   O9        1.0  0.57310  0.37040  0.11429  1.0000
  O   O10       1.0  0.07308  0.12960  0.61430  1.0000
  O   O11       1.0  0.42693  0.62961  0.88572  1.0000
  O   O12       1.0  0.92692  0.87042  0.38574  1.0000
