data_image0
_chemical_formula_structural       CaH12C10N4O8
_chemical_formula_sum              "Ca1 H12 C10 N4 O8"
_cell_length_a       6.18508
_cell_length_b       6.18509
_cell_length_c       10.5316
_cell_angle_alpha    80.5629
_cell_angle_beta     80.5629
_cell_angle_gamma    62.8302

_space_group_name_H-M_alt    "P 1"
_space_group_IT_number       1

loop_
  _space_group_symop_operation_xyz
  'x, y, z'

loop_
  _atom_site_type_symbol
  _atom_site_label
  _atom_site_symmetry_multiplicity
  _atom_site_fract_x
  _atom_site_fract_y
  _atom_site_fract_z
  _atom_site_occupancy
  Ca  Ca1       1.0  0.00174  0.99826  0.50000  1.0000
  H   H1        1.0  0.49403  0.75572  0.33047  1.0000
  H   H2        1.0  0.24428  0.50597  0.66953  1.0000
  H   H3        1.0  0.50858  0.94277  0.41340  1.0000
  H   H4        1.0  0.05723  0.49142  0.58659  1.0000
  H   H5        1.0  0.70493  0.44772  0.65291  1.0000
  H   H6        1.0  0.55228  0.29507  0.34709  1.0000
  H   H7        1.0  0.70035  0.56169  0.50830  1.0000
  H   H8        1.0  0.43831  0.29963  0.49170  1.0000
  H   H9        1.0  0.15436  0.09692  0.72477  1.0000
  H   H10       1.0  0.90309  0.84565  0.27522  1.0000
  H   H11       1.0  0.34645  0.83926  0.68867  1.0000
  H   H12       1.0  0.16075  0.65355  0.31133  1.0000
  C   C1        1.0  0.10499  0.28753  0.17987  1.0000
  C   C2        1.0  0.71247  0.89501  0.82013  1.0000
  C   C3        1.0  0.17582  0.35364  0.05123  1.0000
  C   C4        1.0  0.64636  0.82418  0.94877  1.0000
  C   C5        1.0  0.09607  0.29214  0.95084  1.0000
  C   C6        1.0  0.70785  0.90393  0.04916  1.0000
  C   C7        1.0  0.32324  0.47551  0.02260  1.0000
  C   C8        1.0  0.52448  0.67676  0.97741  1.0000
  C   C9        1.0  0.42738  0.56602  0.90277  1.0000
  C   C10       1.0  0.43399  0.57261  0.09724  1.0000
  N   N1        1.0  0.04766  0.23345  0.28715  1.0000
  N   N2        1.0  0.76654  0.95234  0.71285  1.0000
  N   N3        1.0  0.02859  0.24606  0.86583  1.0000
  N   N4        1.0  0.75394  0.97143  0.13418  1.0000
  O   O1        1.0  0.46535  0.80456  0.41827  1.0000
  O   O2        1.0  0.19544  0.53464  0.58173  1.0000
  O   O3        1.0  0.80850  0.43081  0.56982  1.0000
  O   O4        1.0  0.56919  0.19149  0.43018  1.0000
  O   O5        1.0  0.24444  0.00450  0.64922  1.0000
  O   O6        1.0  0.99551  0.75555  0.35078  1.0000
  O   O7        1.0  0.43179  0.55228  0.78468  1.0000
  O   O8        1.0  0.44773  0.56820  0.21532  1.0000
