data_image0
_chemical_formula_structural       Ba2H16C20N8O12
_chemical_formula_sum              "Ba2 H16 C20 N8 O12"
_cell_length_a       6.87673
_cell_length_b       9.78505
_cell_length_c       11.5597
_cell_angle_alpha    115.22
_cell_angle_beta     105.014
_cell_angle_gamma    91.6856

_space_group_name_H-M_alt    "P 1"
_space_group_IT_number       1

loop_
  _space_group_symop_operation_xyz
  'x, y, z'

loop_
  _atom_site_type_symbol
  _atom_site_label
  _atom_site_symmetry_multiplicity
  _atom_site_fract_x
  _atom_site_fract_y
  _atom_site_fract_z
  _atom_site_occupancy
  Ba  Ba1       1.0  0.03921  0.27639  0.60622  1.0000
  Ba  Ba2       1.0  0.96079  0.72361  0.39378  1.0000
  H   H1        1.0  0.16408  0.01831  0.35738  1.0000
  H   H2        1.0  0.83592  0.98168  0.64262  1.0000
  H   H3        1.0  0.94156  0.02357  0.28627  1.0000
  H   H4        1.0  0.05844  0.97643  0.71373  1.0000
  H   H5        1.0  0.55493  0.11878  0.42925  1.0000
  H   H6        1.0  0.44506  0.88122  0.57075  1.0000
  H   H7        1.0  0.56126  0.15569  0.57623  1.0000
  H   H8        1.0  0.43874  0.84431  0.42377  1.0000
  H   H9        1.0  0.76118  0.42516  0.41880  1.0000
  H   H10       1.0  0.23882  0.57484  0.58121  1.0000
  H   H11       1.0  0.80301  0.27132  0.30717  1.0000
  H   H12       1.0  0.19699  0.72868  0.69283  1.0000
  H   H13       1.0  0.34136  0.32718  0.43726  1.0000
  H   H14       1.0  0.65863  0.67282  0.56274  1.0000
  H   H15       1.0  0.48910  0.41388  0.58422  1.0000
  H   H16       1.0  0.51089  0.58612  0.41578  1.0000
  C   C1        1.0  0.23485  0.98305  0.95997  1.0000
  C   C2        1.0  0.76516  0.01695  0.04002  1.0000
  C   C3        1.0  0.32211  0.93005  0.06082  1.0000
  C   C4        1.0  0.67790  0.06996  0.93918  1.0000
  C   C5        1.0  0.31619  0.07969  0.16745  1.0000
  C   C6        1.0  0.68381  0.92031  0.83254  1.0000
  C   C7        1.0  0.23127  0.13348  0.06698  1.0000
  C   C8        1.0  0.76873  0.86652  0.93301  1.0000
  C   C9        1.0  0.38384  0.79395  0.05727  1.0000
  C   C10       1.0  0.61616  0.20605  0.94273  1.0000
  C   C11       1.0  0.34497  0.66090  0.93461  1.0000
  C   C12       1.0  0.65502  0.33909  0.06539  1.0000
  C   C13       1.0  0.47798  0.78730  0.17764  1.0000
  C   C14       1.0  0.52202  0.21270  0.82236  1.0000
  C   C15       1.0  0.17558  0.27241  0.07412  1.0000
  C   C16       1.0  0.82442  0.72759  0.92588  1.0000
  C   C17       1.0  0.09424  0.29315  0.95881  1.0000
  C   C18       1.0  0.90576  0.70685  0.04119  1.0000
  C   C19       1.0  0.20787  0.39955  0.19908  1.0000
  C   C20       1.0  0.79213  0.60045  0.80092  1.0000
  N   N1        1.0  0.30740  0.55182  0.83123  1.0000
  N   N2        1.0  0.69260  0.44818  0.16878  1.0000
  N   N3        1.0  0.55913  0.78755  0.28032  1.0000
  N   N4        1.0  0.44087  0.21246  0.71969  1.0000
  N   N5        1.0  0.02429  0.30925  0.86260  1.0000
  N   N6        1.0  0.97570  0.69075  0.13740  1.0000
  N   N7        1.0  0.23662  0.50579  0.30367  1.0000
  N   N8        1.0  0.76336  0.49420  0.69632  1.0000
  O   O1        1.0  0.36038  0.13699  0.29265  1.0000
  O   O2        1.0  0.63961  0.86301  0.70735  1.0000
  O   O3        1.0  0.18657  0.92308  0.83481  1.0000
  O   O4        1.0  0.81345  0.07692  0.16519  1.0000
  O   O5        1.0  0.02664  0.01494  0.36633  1.0000
  O   O6        1.0  0.97336  0.98506  0.63367  1.0000
  O   O7        1.0  0.64545  0.12923  0.51495  1.0000
  O   O8        1.0  0.35455  0.87077  0.48505  1.0000
  O   O9        1.0  0.84636  0.34356  0.40282  1.0000
  O   O10       1.0  0.15364  0.65644  0.59718  1.0000
  O   O11       1.0  0.34433  0.39178  0.53062  1.0000
  O   O12       1.0  0.65566  0.60822  0.46938  1.0000
