data_image0
_chemical_formula_structural       K2H50C38N4O4
_chemical_formula_sum              "K2 H50 C38 N4 O4"
_cell_length_a       7.65083
_cell_length_b       10.2595
_cell_length_c       13.1855
_cell_angle_alpha    107.925
_cell_angle_beta     88.9161
_cell_angle_gamma    108.236

_space_group_name_H-M_alt    "P 1"
_space_group_IT_number       1

loop_
  _space_group_symop_operation_xyz
  'x, y, z'

loop_
  _atom_site_type_symbol
  _atom_site_label
  _atom_site_symmetry_multiplicity
  _atom_site_fract_x
  _atom_site_fract_y
  _atom_site_fract_z
  _atom_site_occupancy
  K   K1        1.0  0.29413  0.02774  0.52713  1.0000
  K   K2        1.0  0.70587  0.97226  0.47287  1.0000
  H   H1        1.0  0.88258  0.72720  0.45186  1.0000
  H   H2        1.0  0.11742  0.27281  0.54814  1.0000
  H   H3        1.0  0.78425  0.68385  0.56752  1.0000
  H   H4        1.0  0.21575  0.31615  0.43248  1.0000
  H   H5        1.0  0.02592  0.71668  0.55266  1.0000
  H   H6        1.0  0.97409  0.28332  0.44734  1.0000
  H   H7        1.0  0.60621  0.02761  0.94264  1.0000
  H   H8        1.0  0.39378  0.97239  0.05735  1.0000
  H   H9        1.0  0.18290  0.51874  0.04862  1.0000
  H   H10       1.0  0.81708  0.48125  0.95137  1.0000
  H   H11       1.0  0.37080  0.71832  0.20449  1.0000
  H   H12       1.0  0.62920  0.28167  0.79551  1.0000
  H   H13       1.0  0.31346  0.61119  0.50445  1.0000
  H   H14       1.0  0.68655  0.38881  0.49555  1.0000
  H   H15       1.0  0.27973  0.35541  0.85341  1.0000
  H   H16       1.0  0.72028  0.64460  0.14659  1.0000
  H   H17       1.0  0.86154  0.88150  0.73864  1.0000
  H   H18       1.0  0.13847  0.11851  0.26136  1.0000
  H   H19       1.0  0.74571  0.26658  0.05702  1.0000
  H   H20       1.0  0.25428  0.73340  0.94298  1.0000
  H   H21       1.0  0.90794  0.17421  0.04745  1.0000
  H   H22       1.0  0.09204  0.82578  0.95255  1.0000
  H   H23       1.0  0.90698  0.13431  0.73209  1.0000
  H   H24       1.0  0.09302  0.86569  0.26791  1.0000
  H   H25       1.0  0.49074  0.59552  0.61995  1.0000
  H   H26       1.0  0.50927  0.40447  0.38005  1.0000
  H   H27       1.0  0.92995  0.29641  0.97364  1.0000
  H   H28       1.0  0.07004  0.70358  0.02637  1.0000
  H   H29       1.0  0.59604  0.58928  0.79233  1.0000
  H   H30       1.0  0.40396  0.41072  0.20767  1.0000
  H   H31       1.0  0.03573  0.12755  0.84064  1.0000
  H   H32       1.0  0.96428  0.87245  0.15936  1.0000
  H   H33       1.0  0.49955  0.03536  0.76900  1.0000
  H   H34       1.0  0.50045  0.96463  0.23099  1.0000
  H   H35       1.0  0.10123  0.90866  0.71968  1.0000
  H   H36       1.0  0.89878  0.09134  0.28032  1.0000
  H   H37       1.0  0.04482  0.51254  0.41626  1.0000
  H   H38       1.0  0.95518  0.48747  0.58374  1.0000
  H   H39       1.0  0.75869  0.90549  0.03712  1.0000
  H   H40       1.0  0.24132  0.09452  0.96289  1.0000
  H   H41       1.0  0.73558  0.71907  0.97586  1.0000
  H   H42       1.0  0.26442  0.28094  0.02414  1.0000
  H   H43       1.0  0.54698  0.77005  0.03455  1.0000
  H   H44       1.0  0.45301  0.22995  0.96546  1.0000
  H   H45       1.0  0.85960  0.31568  0.26176  1.0000
  H   H46       1.0  0.14039  0.68431  0.73825  1.0000
  H   H47       1.0  0.13992  0.37311  0.75385  1.0000
  H   H48       1.0  0.86008  0.62689  0.24615  1.0000
  H   H49       1.0  0.37211  0.37314  0.73089  1.0000
  H   H50       1.0  0.62789  0.62687  0.26910  1.0000
  C   C1        1.0  0.22827  0.62932  0.32289  1.0000
  C   C2        1.0  0.77173  0.37068  0.67711  1.0000
  C   C3        1.0  0.08039  0.51300  0.33592  1.0000
  C   C4        1.0  0.91960  0.48699  0.66408  1.0000
  C   C5        1.0  0.97516  0.40163  0.24840  1.0000
  C   C6        1.0  0.02483  0.59837  0.75161  1.0000
  C   C7        1.0  0.00961  0.39998  0.14322  1.0000
  C   C8        1.0  0.99037  0.60000  0.85678  1.0000
  C   C9        1.0  0.15340  0.51626  0.12958  1.0000
  C   C10       1.0  0.84659  0.48373  0.87042  1.0000
  C   C11       1.0  0.25955  0.62880  0.21684  1.0000
  C   C12       1.0  0.74043  0.37118  0.78316  1.0000
  C   C13       1.0  0.89303  0.27854  0.05019  1.0000
  C   C14       1.0  0.10695  0.72145  0.94981  1.0000
  C   C15       1.0  0.48265  0.81626  0.68097  1.0000
  C   C16       1.0  0.51736  0.18375  0.31903  1.0000
  C   C17       1.0  0.51068  0.69033  0.69051  1.0000
  C   C18       1.0  0.48933  0.30967  0.30949  1.0000
  C   C19       1.0  0.56976  0.68636  0.78861  1.0000
  C   C20       1.0  0.43024  0.31365  0.21139  1.0000
  C   C21       1.0  0.60400  0.80613  0.88171  1.0000
  C   C22       1.0  0.39600  0.19388  0.11829  1.0000
  C   C23       1.0  0.57783  0.93164  0.87231  1.0000
  C   C24       1.0  0.42217  0.06838  0.12770  1.0000
  C   C25       1.0  0.51811  0.93666  0.77514  1.0000
  C   C26       1.0  0.48189  0.06335  0.22486  1.0000
  C   C27       1.0  0.66510  0.80006  0.98749  1.0000
  C   C28       1.0  0.33490  0.19996  0.01251  1.0000
  C   C29       1.0  0.35831  0.72332  0.50011  1.0000
  C   C30       1.0  0.64169  0.27667  0.49988  1.0000
  C   C31       1.0  0.02154  0.10025  0.75267  1.0000
  C   C32       1.0  0.97847  0.89975  0.24733  1.0000
  C   C33       1.0  0.98081  0.93933  0.70352  1.0000
  C   C34       1.0  0.01920  0.06067  0.29648  1.0000
  C   C35       1.0  0.24680  0.32726  0.76660  1.0000
  C   C36       1.0  0.75321  0.67274  0.23339  1.0000
  C   C37       1.0  0.90602  0.74812  0.53808  1.0000
  C   C38       1.0  0.09399  0.25188  0.46193  1.0000
  N   N1        1.0  0.33638  0.74446  0.40726  1.0000
  N   N2        1.0  0.66362  0.25553  0.59273  1.0000
  N   N3        1.0  0.43348  0.83534  0.58701  1.0000
  N   N4        1.0  0.56652  0.16465  0.41299  1.0000
  O   O1        1.0  0.18957  0.17398  0.71619  1.0000
  O   O2        1.0  0.81044  0.82602  0.28381  1.0000
  O   O3        1.0  0.94200  0.89978  0.58968  1.0000
  O   O4        1.0  0.05801  0.10023  0.41032  1.0000
