data_image0
_chemical_formula_structural       Sn4H40C16S4O8
_chemical_formula_sum              "Sn4 H40 C16 S4 O8"
_cell_length_a       7.94467
_cell_length_b       9.94691
_cell_length_c       10.0719
_cell_angle_alpha    90.0002
_cell_angle_beta     89.9998
_cell_angle_gamma    89.9983

_space_group_name_H-M_alt    "P 1"
_space_group_IT_number       1

loop_
  _space_group_symop_operation_xyz
  'x, y, z'

loop_
  _atom_site_type_symbol
  _atom_site_label
  _atom_site_symmetry_multiplicity
  _atom_site_fract_x
  _atom_site_fract_y
  _atom_site_fract_z
  _atom_site_occupancy
  Sn  Sn1       1.0  0.74998  0.08965  0.68670  1.0000
  Sn  Sn2       1.0  0.25000  0.41038  0.18670  1.0000
  Sn  Sn3       1.0  0.25001  0.91038  0.31330  1.0000
  Sn  Sn4       1.0  0.75000  0.58967  0.81329  1.0000
  H   H1        1.0  0.51836  0.94598  0.81837  1.0000
  H   H2        1.0  0.48166  0.55402  0.31837  1.0000
  H   H3        1.0  0.01837  0.05402  0.18162  1.0000
  H   H4        1.0  0.98160  0.44598  0.68162  1.0000
  H   H5        1.0  0.48163  0.05404  0.18162  1.0000
  H   H6        1.0  0.51839  0.44598  0.68164  1.0000
  H   H7        1.0  0.98160  0.94597  0.81837  1.0000
  H   H8        1.0  0.01836  0.55406  0.31837  1.0000
  H   H9        1.0  0.42556  0.01815  0.67179  1.0000
  H   H10       1.0  0.57445  0.48186  0.17180  1.0000
  H   H11       1.0  0.92557  0.98186  0.32819  1.0000
  H   H12       1.0  0.07440  0.51814  0.82818  1.0000
  H   H13       1.0  0.57444  0.98188  0.32819  1.0000
  H   H14       1.0  0.42559  0.51815  0.82821  1.0000
  H   H15       1.0  0.07441  0.01812  0.67179  1.0000
  H   H16       1.0  0.92557  0.48188  0.17181  1.0000
  H   H17       1.0  0.45402  0.11947  0.81789  1.0000
  H   H18       1.0  0.54596  0.38052  0.31787  1.0000
  H   H19       1.0  0.95409  0.88052  0.18211  1.0000
  H   H20       1.0  0.04596  0.61945  0.68209  1.0000
  H   H21       1.0  0.54596  0.88055  0.18211  1.0000
  H   H22       1.0  0.45402  0.61946  0.68212  1.0000
  H   H23       1.0  0.04597  0.11945  0.81789  1.0000
  H   H24       1.0  0.95407  0.38056  0.31790  1.0000
  H   H25       1.0  0.75000  0.73902  0.36401  1.0000
  H   H26       1.0  0.24999  0.76088  0.86396  1.0000
  H   H27       1.0  0.24999  0.26097  0.63604  1.0000
  H   H28       1.0  0.75005  0.23899  0.13600  1.0000
  H   H29       1.0  0.86176  0.63786  0.48155  1.0000
  H   H30       1.0  0.13828  0.86212  0.98143  1.0000
  H   H31       1.0  0.36173  0.36217  0.51855  1.0000
  H   H32       1.0  0.63831  0.13783  0.01852  1.0000
  H   H33       1.0  0.13829  0.36221  0.51856  1.0000
  H   H34       1.0  0.86171  0.13783  0.01850  1.0000
  H   H35       1.0  0.63832  0.63785  0.48153  1.0000
  H   H36       1.0  0.36172  0.86212  0.98143  1.0000
  H   H37       1.0  0.75000  0.16638  0.41280  1.0000
  H   H38       1.0  0.25001  0.33357  0.91277  1.0000
  H   H39       1.0  0.25000  0.83355  0.58725  1.0000
  H   H40       1.0  0.75001  0.66640  0.08719  1.0000
  C   C1        1.0  0.50565  0.03713  0.75834  1.0000
  C   C2        1.0  0.49435  0.46289  0.25833  1.0000
  C   C3        1.0  0.00568  0.96289  0.24166  1.0000
  C   C4        1.0  0.99433  0.53711  0.74164  1.0000
  C   C5        1.0  0.49434  0.96291  0.24166  1.0000
  C   C6        1.0  0.50566  0.53712  0.74166  1.0000
  C   C7        1.0  0.99433  0.03710  0.75833  1.0000
  C   C8        1.0  0.00567  0.46293  0.25834  1.0000
  C   C9        1.0  0.74999  0.81303  0.56555  1.0000
  C   C10       1.0  0.25001  0.68699  0.06554  1.0000
  C   C11       1.0  0.24996  0.18704  0.43448  1.0000
  C   C12       1.0  0.75001  0.31299  0.93446  1.0000
  C   C13       1.0  0.74996  0.70079  0.46585  1.0000
  C   C14       1.0  0.24998  0.79918  0.96578  1.0000
  C   C15       1.0  0.24999  0.29923  0.53420  1.0000
  C   C16       1.0  0.75005  0.20074  0.03420  1.0000
  S   S1        1.0  0.74999  0.25951  0.51021  1.0000
  S   S2        1.0  0.25000  0.24049  0.01022  1.0000
  S   S3        1.0  0.24999  0.74047  0.48979  1.0000
  S   S4        1.0  0.75001  0.75953  0.98978  1.0000
  O   O1        1.0  0.74998  0.78784  0.68948  1.0000
  O   O2        1.0  0.25000  0.71222  0.18947  1.0000
  O   O3        1.0  0.24996  0.21225  0.31056  1.0000
  O   O4        1.0  0.74996  0.28777  0.81053  1.0000
  O   O5        1.0  0.74995  0.93476  0.52303  1.0000
  O   O6        1.0  0.25001  0.56522  0.02302  1.0000
  O   O7        1.0  0.24997  0.06529  0.47695  1.0000
  O   O8        1.0  0.75005  0.43474  0.97694  1.0000
