data_image0
_chemical_formula_structural       Cu4P4H16C26S4Br4N2O12
_chemical_formula_sum              "Cu4 P4 H16 C26 S4 Br4 N2 O12"
_cell_length_a       4.74527
_cell_length_b       14.3693
_cell_length_c       17.446
_cell_angle_alpha    70.0362
_cell_angle_beta     89.9043
_cell_angle_gamma    87.1874

_space_group_name_H-M_alt    "P 1"
_space_group_IT_number       1

loop_
  _space_group_symop_operation_xyz
  'x, y, z'

loop_
  _atom_site_type_symbol
  _atom_site_label
  _atom_site_symmetry_multiplicity
  _atom_site_fract_x
  _atom_site_fract_y
  _atom_site_fract_z
  _atom_site_occupancy
  Cu  Cu1       1.0  0.34562  0.41549  0.22558  1.0000
  Cu  Cu2       1.0  0.65437  0.58451  0.77442  1.0000
  Cu  Cu3       1.0  0.24222  0.47748  0.05285  1.0000
  Cu  Cu4       1.0  0.75777  0.52252  0.94715  1.0000
  P   P1        1.0  0.72676  0.57764  0.11198  1.0000
  P   P2        1.0  0.27323  0.42237  0.88802  1.0000
  P   P3        1.0  0.86076  0.32055  0.16285  1.0000
  P   P4        1.0  0.13923  0.67945  0.83715  1.0000
  H   H1        1.0  0.34492  0.72749  0.98763  1.0000
  H   H2        1.0  0.65507  0.27252  0.01237  1.0000
  H   H3        1.0  0.63108  0.92632  0.12541  1.0000
  H   H4        1.0  0.36896  0.07368  0.87459  1.0000
  H   H5        1.0  0.83097  0.94662  0.28900  1.0000
  H   H6        1.0  0.16905  0.05338  0.71100  1.0000
  H   H7        1.0  0.17998  0.19592  0.07588  1.0000
  H   H8        1.0  0.82001  0.80407  0.92412  1.0000
  H   H9        1.0  0.48488  0.56436  0.29954  1.0000
  H   H10       1.0  0.51513  0.43564  0.70046  1.0000
  H   H11       1.0  0.34161  0.60734  0.42092  1.0000
  H   H12       1.0  0.65839  0.39266  0.57908  1.0000
  H   H13       1.0  0.78759  0.36200  0.48124  1.0000
  H   H14       1.0  0.21238  0.63801  0.51875  1.0000
  H   H15       1.0  0.95077  0.33313  0.35551  1.0000
  H   H16       1.0  0.04921  0.66687  0.64449  1.0000
  C   C1        1.0  0.63849  0.70720  0.09088  1.0000
  C   C2        1.0  0.36151  0.29280  0.90912  1.0000
  C   C3        1.0  0.44940  0.75753  0.02868  1.0000
  C   C4        1.0  0.55060  0.24246  0.97132  1.0000
  C   C5        1.0  0.60096  0.86494  0.10402  1.0000
  C   C6        1.0  0.39908  0.13506  0.89598  1.0000
  C   C7        1.0  0.72043  0.77043  0.13413  1.0000
  C   C8        1.0  0.27958  0.22957  0.86587  1.0000
  C   C9        1.0  0.90428  0.18999  0.17935  1.0000
  C   C10       1.0  0.09572  0.81001  0.82064  1.0000
  C   C11       1.0  0.79869  0.11075  0.24620  1.0000
  C   C12       1.0  0.20131  0.88924  0.75380  1.0000
  C   C13       1.0  0.88270  0.01802  0.24589  1.0000
  C   C14       1.0  0.11730  0.98198  0.75412  1.0000
  C   C15       1.0  0.06895  0.15316  0.12996  1.0000
  C   C16       1.0  0.93105  0.84684  0.87004  1.0000
  C   C17       1.0  0.33091  0.52228  0.34226  1.0000
  C   C18       1.0  0.66909  0.47771  0.65774  1.0000
  C   C19       1.0  0.24787  0.54498  0.41052  1.0000
  C   C20       1.0  0.75213  0.45502  0.58948  1.0000
  C   C21       1.0  0.04783  0.48872  0.46361  1.0000
  C   C22       1.0  0.95216  0.51128  0.53639  1.0000
  C   C23       1.0  0.94235  0.41000  0.44365  1.0000
  C   C24       1.0  0.05762  0.59001  0.55634  1.0000
  C   C25       1.0  0.03280  0.39181  0.37418  1.0000
  C   C26       1.0  0.96717  0.60820  0.62582  1.0000
  S   S1        1.0  0.37963  0.87769  0.02298  1.0000
  S   S2        1.0  0.62038  0.12231  0.97702  1.0000
  S   S3        1.0  0.09420  0.02638  0.16407  1.0000
  S   S4        1.0  0.90582  0.97362  0.83594  1.0000
  Br  Br1       1.0  0.96232  0.72843  0.22729  1.0000
  Br  Br2       1.0  0.03773  0.27156  0.77270  1.0000
  Br  Br3       1.0  0.56895  0.12900  0.32929  1.0000
  Br  Br4       1.0  0.43104  0.87100  0.67071  1.0000
  N   N1        1.0  0.22463  0.44703  0.32419  1.0000
  N   N2        1.0  0.77536  0.55298  0.67581  1.0000
  O   O1        1.0  0.04746  0.55909  0.10963  1.0000
  O   O2        1.0  0.95254  0.44091  0.89037  1.0000
  O   O3        1.0  0.57790  0.55589  0.04013  1.0000
  O   O4        1.0  0.42208  0.44411  0.95986  1.0000
  O   O5        1.0  0.60506  0.52299  0.19592  1.0000
  O   O6        1.0  0.39493  0.47701  0.80408  1.0000
  O   O7        1.0  0.98187  0.37290  0.07750  1.0000
  O   O8        1.0  0.01812  0.62710  0.92250  1.0000
  O   O9        1.0  0.01325  0.33835  0.23398  1.0000
  O   O10       1.0  0.98674  0.66165  0.76602  1.0000
  O   O11       1.0  0.53937  0.34369  0.16315  1.0000
  O   O12       1.0  0.46063  0.65631  0.83685  1.0000
