data_image0
_chemical_formula_structural       Cu4P4H16C16S4Br4O16
_chemical_formula_sum              "Cu4 P4 H16 C16 S4 Br4 O16"
_cell_length_a       7.89393
_cell_length_b       7.68151
_cell_length_c       13.3174
_cell_angle_alpha    94.884
_cell_angle_beta     89.9998
_cell_angle_gamma    89.9999

_space_group_name_H-M_alt    "P 1"
_space_group_IT_number       1

loop_
  _space_group_symop_operation_xyz
  'x, y, z'

loop_
  _atom_site_type_symbol
  _atom_site_label
  _atom_site_symmetry_multiplicity
  _atom_site_fract_x
  _atom_site_fract_y
  _atom_site_fract_z
  _atom_site_occupancy
  Cu  Cu1       1.0  0.10426  0.70593  0.47708  1.0000
  Cu  Cu2       1.0  0.60426  0.79407  0.52292  1.0000
  Cu  Cu3       1.0  0.89574  0.29408  0.52292  1.0000
  Cu  Cu4       1.0  0.39574  0.20593  0.47708  1.0000
  P   P1        1.0  0.65552  0.47798  0.38266  1.0000
  P   P2        1.0  0.15552  0.02204  0.61734  1.0000
  P   P3        1.0  0.34449  0.52204  0.61734  1.0000
  P   P4        1.0  0.84449  0.97798  0.38266  1.0000
  H   H1        1.0  0.72501  0.35569  0.00353  1.0000
  H   H2        1.0  0.22501  0.14428  0.99647  1.0000
  H   H3        1.0  0.27499  0.64428  0.99647  1.0000
  H   H4        1.0  0.77499  0.85568  0.00352  1.0000
  H   H5        1.0  0.01609  0.47003  0.29769  1.0000
  H   H6        1.0  0.51608  0.02997  0.70231  1.0000
  H   H7        1.0  0.98392  0.52998  0.70230  1.0000
  H   H8        1.0  0.48393  0.97004  0.29770  1.0000
  H   H9        1.0  0.86328  0.85478  0.63598  1.0000
  H   H10       1.0  0.36328  0.64522  0.36402  1.0000
  H   H11       1.0  0.13672  0.14522  0.36402  1.0000
  H   H12       1.0  0.63672  0.35478  0.63598  1.0000
  H   H13       1.0  0.70512  0.77313  0.69458  1.0000
  H   H14       1.0  0.20511  0.72687  0.30541  1.0000
  H   H15       1.0  0.29488  0.22687  0.30542  1.0000
  H   H16       1.0  0.79489  0.27314  0.69459  1.0000
  C   C1        1.0  0.74408  0.45044  0.25797  1.0000
  C   C2        1.0  0.24409  0.04956  0.74203  1.0000
  C   C3        1.0  0.25592  0.54957  0.74203  1.0000
  C   C4        1.0  0.75592  0.95044  0.25797  1.0000
  C   C5        1.0  0.65614  0.41350  0.16427  1.0000
  C   C6        1.0  0.15613  0.08651  0.83573  1.0000
  C   C7        1.0  0.34387  0.58649  0.83573  1.0000
  C   C8        1.0  0.84387  0.91351  0.16427  1.0000
  C   C9        1.0  0.75984  0.38463  0.08189  1.0000
  C   C10       1.0  0.25984  0.11536  0.91811  1.0000
  C   C11       1.0  0.24016  0.61535  0.91810  1.0000
  C   C12       1.0  0.74016  0.88462  0.08190  1.0000
  C   C13       1.0  0.91665  0.44799  0.24188  1.0000
  C   C14       1.0  0.41668  0.05200  0.75812  1.0000
  C   C15       1.0  0.08333  0.55200  0.75812  1.0000
  C   C16       1.0  0.58334  0.94801  0.24188  1.0000
  S   S1        1.0  0.96793  0.40273  0.11776  1.0000
  S   S2        1.0  0.46792  0.09725  0.88225  1.0000
  S   S3        1.0  0.03206  0.59725  0.88225  1.0000
  S   S4        1.0  0.53206  0.90274  0.11776  1.0000
  Br  Br1       1.0  0.41698  0.40482  0.14979  1.0000
  Br  Br2       1.0  0.91697  0.09518  0.85021  1.0000
  Br  Br3       1.0  0.58301  0.59517  0.85021  1.0000
  Br  Br4       1.0  0.08301  0.90482  0.14979  1.0000
  O   O1        1.0  0.55518  0.65352  0.39479  1.0000
  O   O2        1.0  0.05519  0.84648  0.60521  1.0000
  O   O3        1.0  0.44481  0.34648  0.60520  1.0000
  O   O4        1.0  0.94482  0.15352  0.39480  1.0000
  O   O5        1.0  0.80121  0.48891  0.46018  1.0000
  O   O6        1.0  0.30122  0.01109  0.53982  1.0000
  O   O7        1.0  0.19878  0.51109  0.53982  1.0000
  O   O8        1.0  0.69879  0.98891  0.46018  1.0000
  O   O9        1.0  0.53873  0.32031  0.38699  1.0000
  O   O10       1.0  0.03872  0.17971  0.61301  1.0000
  O   O11       1.0  0.46128  0.67971  0.61301  1.0000
  O   O12       1.0  0.96127  0.82031  0.38699  1.0000
  O   O13       1.0  0.73636  0.86237  0.64959  1.0000
  O   O14       1.0  0.23636  0.63763  0.35040  1.0000
  O   O15       1.0  0.26364  0.13763  0.35041  1.0000
  O   O16       1.0  0.76365  0.36238  0.64960  1.0000
