data_image0
_chemical_formula_structural       Cd2H28C34N16
_chemical_formula_sum              "Cd2 H28 C34 N16"
_cell_length_a       9.83764
_cell_length_b       9.25793
_cell_length_c       12.4265
_cell_angle_alpha    96.6126
_cell_angle_beta     108.715
_cell_angle_gamma    115.157

_space_group_name_H-M_alt    "P 1"
_space_group_IT_number       1

loop_
  _space_group_symop_operation_xyz
  'x, y, z'

loop_
  _atom_site_type_symbol
  _atom_site_label
  _atom_site_symmetry_multiplicity
  _atom_site_fract_x
  _atom_site_fract_y
  _atom_site_fract_z
  _atom_site_occupancy
  Cd  Cd1       1.0  0.49969  0.99960  0.99984  1.0000
  Cd  Cd2       1.0  0.50063  0.49937  0.50048  1.0000
  H   H1        1.0  0.72119  0.49004  0.19902  1.0000
  H   H2        1.0  0.21587  0.35848  0.87404  1.0000
  H   H3        1.0  0.27933  0.50919  0.80175  1.0000
  H   H4        1.0  0.78284  0.63807  0.12453  1.0000
  H   H5        1.0  0.92161  0.45064  0.16771  1.0000
  H   H6        1.0  0.12766  0.30697  0.60743  1.0000
  H   H7        1.0  0.08122  0.55048  0.83533  1.0000
  H   H8        1.0  0.86711  0.69465  0.39082  1.0000
  H   H9        1.0  0.03745  0.58704  0.31228  1.0000
  H   H10       1.0  0.25434  0.24764  0.70608  1.0000
  H   H11       1.0  0.96377  0.41647  0.68993  1.0000
  H   H12       1.0  0.74333  0.75382  0.28935  1.0000
  H   H13       1.0  0.30475  0.69802  0.31030  1.0000
  H   H14       1.0  0.11736  0.00179  0.78595  1.0000
  H   H15       1.0  0.69558  0.30010  0.68921  1.0000
  H   H16       1.0  0.88401  0.00021  0.21268  1.0000
  H   H17       1.0  0.49889  0.85649  0.22335  1.0000
  H   H18       1.0  0.86786  0.71985  0.71806  1.0000
  H   H19       1.0  0.50069  0.14041  0.77527  1.0000
  H   H20       1.0  0.13526  0.28117  0.28188  1.0000
  H   H21       1.0  0.12858  0.87209  0.95620  1.0000
  H   H22       1.0  0.59509  0.84496  0.45501  1.0000
  H   H23       1.0  0.87170  0.13017  0.04550  1.0000
  H   H24       1.0  0.40293  0.15247  0.54541  1.0000
  H   H25       1.0  0.91832  0.70797  0.02609  1.0000
  H   H26       1.0  0.83524  0.12943  0.50796  1.0000
  H   H27       1.0  0.08267  0.29561  0.97641  1.0000
  H   H28       1.0  0.16098  0.86878  0.49100  1.0000
  C   C1        1.0  0.82509  0.60847  0.20776  1.0000
  C   C2        1.0  0.17444  0.39088  0.79198  1.0000
  C   C3        1.0  0.97157  0.58025  0.22006  1.0000
  C   C4        1.0  0.14303  0.25978  0.68535  1.0000
  C   C5        1.0  0.02952  0.42113  0.78159  1.0000
  C   C6        1.0  0.85444  0.74101  0.31252  1.0000
  C   C7        1.0  0.09385  0.68988  0.17671  1.0000
  C   C8        1.0  0.99631  0.09088  0.65290  1.0000
  C   C9        1.0  0.90684  0.31106  0.82444  1.0000
  C   C10       1.0  0.00227  0.90936  0.34576  1.0000
  C   C11       1.0  0.26073  0.73525  0.23187  1.0000
  C   C12       1.0  0.00325  0.97313  0.71297  1.0000
  C   C13       1.0  0.73962  0.26383  0.76817  1.0000
  C   C14       1.0  0.99734  0.02788  0.28599  1.0000
  C   C15       1.0  0.36940  0.82407  0.18447  1.0000
  C   C16       1.0  0.86498  0.81622  0.67579  1.0000
  C   C17       1.0  0.63053  0.17436  0.81508  1.0000
  C   C18       1.0  0.13655  0.18423  0.32396  1.0000
  C   C19       1.0  0.16269  0.83152  0.03490  1.0000
  C   C20       1.0  0.71300  0.88562  0.52837  1.0000
  C   C21       1.0  0.83766  0.16989  0.96633  1.0000
  C   C22       1.0  0.28573  0.11281  0.47163  1.0000
  C   C23       1.0  0.04606  0.74062  0.07554  1.0000
  C   C24       1.0  0.84631  0.04372  0.55888  1.0000
  C   C25       1.0  0.95467  0.26154  0.92623  1.0000
  C   C26       1.0  0.15138  0.95516  0.44030  1.0000
  C   C27       1.0  0.75994  0.24001  0.28807  1.0000
  C   C28       1.0  0.58194  0.55128  0.78842  1.0000
  C   C29       1.0  0.24032  0.75958  0.71173  1.0000
  C   C30       1.0  0.41910  0.44845  0.21203  1.0000
  C   C31       1.0  0.74768  0.36317  0.45317  1.0000
  C   C32       1.0  0.61146  0.71854  0.95678  1.0000
  C   C33       1.0  0.25352  0.63652  0.54702  1.0000
  C   C34       1.0  0.38879  0.28154  0.04318  1.0000
  N   N1        1.0  0.32204  0.87262  0.08764  1.0000
  N   N2        1.0  0.72177  0.77243  0.58485  1.0000
  N   N3        1.0  0.67790  0.12695  0.91251  1.0000
  N   N4        1.0  0.27882  0.22676  0.41542  1.0000
  N   N5        1.0  0.71563  0.16524  0.18880  1.0000
  N   N6        1.0  0.52353  0.46773  0.68923  1.0000
  N   N7        1.0  0.28395  0.83391  0.81098  1.0000
  N   N8        1.0  0.47732  0.53072  0.31155  1.0000
  N   N9        1.0  0.68923  0.40084  0.51325  1.0000
  N   N10       1.0  0.58405  0.79648  0.02082  1.0000
  N   N11       1.0  0.31215  0.59838  0.48732  1.0000
  N   N12       1.0  0.41530  0.20265  0.97907  1.0000
  N   N13       1.0  0.82536  0.32620  0.39822  1.0000
  N   N14       1.0  0.65855  0.63848  0.89873  1.0000
  N   N15       1.0  0.17560  0.67400  0.60150  1.0000
  N   N16       1.0  0.34288  0.36296  0.10132  1.0000
