data_image0
_chemical_formula_structural       Mn2H24C32N16
_chemical_formula_sum              "Mn2 H24 C32 N16"
_cell_length_a       9.56653
_cell_length_b       9.56041
_cell_length_c       11.7945
_cell_angle_alpha    95.2469
_cell_angle_beta     108.067
_cell_angle_gamma    120.115

_space_group_name_H-M_alt    "P 1"
_space_group_IT_number       1

loop_
  _space_group_symop_operation_xyz
  'x, y, z'

loop_
  _atom_site_type_symbol
  _atom_site_label
  _atom_site_symmetry_multiplicity
  _atom_site_fract_x
  _atom_site_fract_y
  _atom_site_fract_z
  _atom_site_occupancy
  Mn  Mn1       1.0  0.50000  0.50000  0.50000  1.0000
  Mn  Mn2       1.0  0.50067  0.00056  0.99983  1.0000
  H   H1        1.0  0.58789  0.83708  0.44193  1.0000
  H   H2        1.0  0.89152  0.14185  0.06047  1.0000
  H   H3        1.0  0.41211  0.16292  0.55807  1.0000
  H   H4        1.0  0.10847  0.85810  0.93957  1.0000
  H   H5        1.0  0.81983  0.14726  0.53153  1.0000
  H   H6        1.0  0.11277  0.28738  0.97244  1.0000
  H   H7        1.0  0.18017  0.85275  0.46847  1.0000
  H   H8        1.0  0.88710  0.71257  0.02762  1.0000
  H   H9        1.0  0.14594  0.03140  0.79402  1.0000
  H   H10       1.0  0.73730  0.35573  0.71160  1.0000
  H   H11       1.0  0.85406  0.96860  0.20598  1.0000
  H   H12       1.0  0.26263  0.64422  0.28849  1.0000
  H   H13       1.0  0.90019  0.72458  0.69101  1.0000
  H   H14       1.0  0.53180  0.20905  0.81173  1.0000
  H   H15       1.0  0.09981  0.27542  0.30898  1.0000
  H   H16       1.0  0.46812  0.79091  0.18826  1.0000
  H   H17       1.0  0.20849  0.35714  0.67765  1.0000
  H   H18       1.0  0.17847  0.53457  0.82812  1.0000
  H   H19       1.0  0.79149  0.64287  0.32237  1.0000
  H   H20       1.0  0.82151  0.46541  0.17189  1.0000
  H   H21       1.0  0.24191  0.32032  0.82426  1.0000
  H   H22       1.0  0.99649  0.42268  0.68151  1.0000
  H   H23       1.0  0.75809  0.67967  0.17574  1.0000
  H   H24       1.0  0.00348  0.57730  0.31852  1.0000
  C   C1        1.0  0.71377  0.88610  0.52053  1.0000
  C   C2        1.0  0.86279  0.19098  0.98289  1.0000
  C   C3        1.0  0.28623  0.11391  0.47947  1.0000
  C   C4        1.0  0.13708  0.80890  0.01714  1.0000
  C   C5        1.0  0.84311  0.05885  0.57169  1.0000
  C   C6        1.0  0.98467  0.27121  0.93233  1.0000
  C   C7        1.0  0.15690  0.94115  0.42831  1.0000
  C   C8        1.0  0.01518  0.72871  0.06770  1.0000
  C   C9        1.0  0.00156  0.11720  0.67431  1.0000
  C   C10       1.0  0.94189  0.32923  0.83046  1.0000
  C   C11       1.0  0.99843  0.88280  0.32570  1.0000
  C   C12       1.0  0.05805  0.67071  0.16957  1.0000
  C   C13       1.0  0.02376  0.99435  0.71647  1.0000
  C   C14       1.0  0.77738  0.30961  0.78847  1.0000
  C   C15       1.0  0.97624  0.00565  0.28353  1.0000
  C   C16       1.0  0.22254  0.69030  0.21161  1.0000
  C   C17       1.0  0.88787  0.82343  0.65972  1.0000
  C   C18       1.0  0.66166  0.22829  0.84380  1.0000
  C   C19       1.0  0.11213  0.17657  0.34028  1.0000
  C   C20       1.0  0.33820  0.77157  0.15623  1.0000
  C   C21       1.0  0.14026  0.30369  0.73803  1.0000
  C   C22       1.0  0.06550  0.40623  0.76741  1.0000
  C   C23       1.0  0.85972  0.69630  0.26199  1.0000
  C   C24       1.0  0.93445  0.59374  0.23262  1.0000
  C   C25       1.0  0.42443  0.44247  0.20518  1.0000
  C   C26       1.0  0.72256  0.20863  0.27997  1.0000
  C   C27       1.0  0.57554  0.55748  0.79482  1.0000
  C   C28       1.0  0.27754  0.79147  0.71996  1.0000
  C   C29       1.0  0.42147  0.26932  0.05653  1.0000
  C   C30       1.0  0.73110  0.36265  0.44462  1.0000
  C   C31       1.0  0.57868  0.73078  0.94344  1.0000
  C   C32       1.0  0.26884  0.63728  0.55536  1.0000
  N   N1        1.0  0.73313  0.76919  0.56479  1.0000
  N   N2        1.0  0.70119  0.16564  0.93784  1.0000
  N   N3        1.0  0.26687  0.23081  0.43521  1.0000
  N   N4        1.0  0.29846  0.83400  0.06220  1.0000
  N   N5        1.0  0.44533  0.50331  0.30578  1.0000
  N   N6        1.0  0.66194  0.12261  0.17694  1.0000
  N   N7        1.0  0.55468  0.49670  0.69422  1.0000
  N   N8        1.0  0.33843  0.87772  0.82296  1.0000
  N   N9        1.0  0.39790  0.38555  0.09146  1.0000
  N   N10       1.0  0.80085  0.30334  0.39479  1.0000
  N   N11       1.0  0.60200  0.61436  0.90854  1.0000
  N   N12       1.0  0.19905  0.69655  0.60520  1.0000
  N   N13       1.0  0.43593  0.16291  0.01446  1.0000
  N   N14       1.0  0.67810  0.42002  0.49968  1.0000
  N   N15       1.0  0.56444  0.83742  0.98542  1.0000
  N   N16       1.0  0.32189  0.57997  0.50032  1.0000
