data_image0
_chemical_formula_structural       Co2H16C16N12O8
_chemical_formula_sum              "Co2 H16 C16 N12 O8"
_cell_length_a       4.83536
_cell_length_b       8.43572
_cell_length_c       11.976
_cell_angle_alpha    91.359
_cell_angle_beta     90.0003
_cell_angle_gamma    89.9994

_space_group_name_H-M_alt    "P 1"
_space_group_IT_number       1

loop_
  _space_group_symop_operation_xyz
  'x, y, z'

loop_
  _atom_site_type_symbol
  _atom_site_label
  _atom_site_symmetry_multiplicity
  _atom_site_fract_x
  _atom_site_fract_y
  _atom_site_fract_z
  _atom_site_occupancy
  Co  Co1       1.0  0.50000  0.50000  1.00000  1.0000
  Co  Co2       1.0  1.00000  1.00000  0.50000  1.0000
  H   H1        1.0  0.45511  0.68239  0.49255  1.0000
  H   H2        1.0  0.95512  0.81761  0.00745  1.0000
  H   H3        1.0  0.54489  0.31761  0.50745  1.0000
  H   H4        1.0  0.04488  0.18239  0.99255  1.0000
  H   H5        1.0  0.73052  0.75423  0.68056  1.0000
  H   H6        1.0  0.23052  0.74577  0.81944  1.0000
  H   H7        1.0  0.26948  0.24577  0.31944  1.0000
  H   H8        1.0  0.76948  0.25423  0.18056  1.0000
  H   H9        1.0  0.91170  0.32005  0.68706  1.0000
  H   H10       1.0  0.41169  0.17995  0.81294  1.0000
  H   H11       1.0  0.08831  0.67995  0.31294  1.0000
  H   H12       1.0  0.58831  0.82005  0.18706  1.0000
  H   H13       1.0  0.65495  0.45923  0.73243  1.0000
  H   H14       1.0  0.15495  0.04077  0.76757  1.0000
  H   H15       1.0  0.34505  0.54077  0.26757  1.0000
  H   H16       1.0  0.84505  0.95923  0.23243  1.0000
  C   C1        1.0  0.28176  0.66364  0.54830  1.0000
  C   C2        1.0  0.78176  0.83636  0.95170  1.0000
  C   C3        1.0  0.71824  0.33636  0.45170  1.0000
  C   C4        1.0  0.21824  0.16364  0.04830  1.0000
  C   C5        1.0  0.91472  0.70411  0.64279  1.0000
  C   C6        1.0  0.41472  0.79589  0.85721  1.0000
  C   C7        1.0  0.08528  0.29589  0.35721  1.0000
  C   C8        1.0  0.58528  0.20410  0.14279  1.0000
  C   C9        1.0  0.87812  0.43641  0.72827  1.0000
  C   C10       1.0  0.37811  0.06359  0.77173  1.0000
  C   C11       1.0  0.12188  0.56359  0.27173  1.0000
  C   C12       1.0  0.62189  0.93641  0.22827  1.0000
  C   C13       1.0  0.99857  0.43037  0.84660  1.0000
  C   C14       1.0  0.49857  0.06963  0.65340  1.0000
  C   C15       1.0  0.00143  0.56963  0.15340  1.0000
  C   C16       1.0  0.50143  0.93037  0.34660  1.0000
  N   N1        1.0  0.00460  0.55547  0.65930  1.0000
  N   N2        1.0  0.50460  0.94453  0.84070  1.0000
  N   N3        1.0  0.99540  0.44453  0.34070  1.0000
  N   N4        1.0  0.49540  0.05547  0.15930  1.0000
  N   N5        1.0  0.24020  0.52760  0.59987  1.0000
  N   N6        1.0  0.74020  0.97240  0.90013  1.0000
  N   N7        1.0  0.75980  0.47239  0.40013  1.0000
  N   N8        1.0  0.25980  0.02761  0.09987  1.0000
  N   N9        1.0  0.08561  0.77649  0.57259  1.0000
  N   N10       1.0  0.58562  0.72351  0.92741  1.0000
  N   N11       1.0  0.91439  0.22351  0.42741  1.0000
  N   N12       1.0  0.41438  0.27649  0.07259  1.0000
  O   O1        1.0  0.83429  0.39176  0.92382  1.0000
  O   O2        1.0  0.33431  0.10824  0.57617  1.0000
  O   O3        1.0  0.16572  0.60824  0.07618  1.0000
  O   O4        1.0  0.66569  0.89175  0.42383  1.0000
  O   O5        1.0  0.25588  0.45640  0.85705  1.0000
  O   O6        1.0  0.75588  0.04358  0.64297  1.0000
  O   O7        1.0  0.74412  0.54359  0.14295  1.0000
  O   O8        1.0  0.24412  0.95642  0.35703  1.0000
