data_image0
_chemical_formula_structural       Mn2H14C14N2O12
_chemical_formula_sum              "Mn2 H14 C14 N2 O12"
_cell_length_a       7.30818
_cell_length_b       7.91971
_cell_length_c       7.9197
_cell_angle_alpha    100.005
_cell_angle_beta     100.949
_cell_angle_gamma    100.948

_space_group_name_H-M_alt    "P 1"
_space_group_IT_number       1

loop_
  _space_group_symop_operation_xyz
  'x, y, z'

loop_
  _atom_site_type_symbol
  _atom_site_label
  _atom_site_symmetry_multiplicity
  _atom_site_fract_x
  _atom_site_fract_y
  _atom_site_fract_z
  _atom_site_occupancy
  Mn  Mn1       1.0  0.75000  0.15819  0.84181  1.0000
  Mn  Mn2       1.0  0.25000  0.84181  0.15819  1.0000
  H   H1        1.0  0.12740  0.18496  0.98382  1.0000
  H   H2        1.0  0.37260  0.01618  0.81504  1.0000
  H   H3        1.0  0.87260  0.81504  0.01618  1.0000
  H   H4        1.0  0.62740  0.98382  0.18496  1.0000
  H   H5        1.0  0.11182  0.34645  0.88980  1.0000
  H   H6        1.0  0.38818  0.11020  0.65355  1.0000
  H   H7        1.0  0.88818  0.65355  0.11020  1.0000
  H   H8        1.0  0.61183  0.88980  0.34645  1.0000
  H   H9        1.0  0.71653  0.54911  0.83946  1.0000
  H   H10       1.0  0.78347  0.16054  0.45090  1.0000
  H   H11       1.0  0.28348  0.45090  0.16054  1.0000
  H   H12       1.0  0.21653  0.83946  0.54910  1.0000
  H   H13       1.0  0.75000  0.66709  0.33291  1.0000
  H   H14       1.0  0.25000  0.33290  0.66709  1.0000
  C   C1        1.0  0.73457  0.51317  0.70582  1.0000
  C   C2        1.0  0.76543  0.29418  0.48683  1.0000
  C   C3        1.0  0.26544  0.48683  0.29417  1.0000
  C   C4        1.0  0.23457  0.70582  0.51317  1.0000
  C   C5        1.0  0.74013  0.63482  0.59732  1.0000
  C   C6        1.0  0.75986  0.40269  0.36518  1.0000
  C   C7        1.0  0.25987  0.36518  0.40268  1.0000
  C   C8        1.0  0.24013  0.59731  0.63482  1.0000
  C   C9        1.0  0.75000  0.57722  0.42279  1.0000
  C   C10       1.0  0.25000  0.42278  0.57721  1.0000
  C   C11       1.0  0.73498  0.82142  0.66846  1.0000
  C   C12       1.0  0.76502  0.33154  0.17858  1.0000
  C   C13       1.0  0.26502  0.17858  0.33154  1.0000
  C   C14       1.0  0.23498  0.66846  0.82142  1.0000
  N   N1        1.0  0.75000  0.34678  0.65322  1.0000
  N   N2        1.0  0.25000  0.65322  0.34678  1.0000
  O   O1        1.0  0.75615  0.87404  0.83474  1.0000
  O   O2        1.0  0.74385  0.16527  0.12596  1.0000
  O   O3        1.0  0.24385  0.12596  0.16527  1.0000
  O   O4        1.0  0.25615  0.83473  0.87404  1.0000
  O   O5        1.0  0.71042  0.92417  0.56418  1.0000
  O   O6        1.0  0.78959  0.43583  0.07584  1.0000
  O   O7        1.0  0.28960  0.07583  0.43582  1.0000
  O   O8        1.0  0.21041  0.56417  0.92416  1.0000
  O   O9        1.0  0.05370  0.21977  0.88136  1.0000
  O   O10       1.0  0.44630  0.11864  0.78023  1.0000
  O   O11       1.0  0.94630  0.78022  0.11864  1.0000
  O   O12       1.0  0.55371  0.88136  0.21978  1.0000
