data_image0
_chemical_formula_structural       Y2H18C18N2O22
_chemical_formula_sum              "Y2 H18 C18 N2 O22"
_cell_length_a       7.39918
_cell_length_b       9.2154
_cell_length_c       11.5083
_cell_angle_alpha    72.2763
_cell_angle_beta     69.9417
_cell_angle_gamma    81.0704

_space_group_name_H-M_alt    "P 1"
_space_group_IT_number       1

loop_
  _space_group_symop_operation_xyz
  'x, y, z'

loop_
  _atom_site_type_symbol
  _atom_site_label
  _atom_site_symmetry_multiplicity
  _atom_site_fract_x
  _atom_site_fract_y
  _atom_site_fract_z
  _atom_site_occupancy
  Y   Y1        1.0  0.11178  0.55453  0.71953  1.0000
  Y   Y2        1.0  0.88821  0.44547  0.28046  1.0000
  H   H1        1.0  0.55161  0.50695  0.59588  1.0000
  H   H2        1.0  0.44839  0.49305  0.40411  1.0000
  H   H3        1.0  0.48438  0.55504  0.72857  1.0000
  H   H4        1.0  0.51562  0.44496  0.27143  1.0000
  H   H5        1.0  0.13218  0.85146  0.49479  1.0000
  H   H6        1.0  0.86781  0.14855  0.50521  1.0000
  H   H7        1.0  0.03073  0.89091  0.62864  1.0000
  H   H8        1.0  0.96926  0.10909  0.37136  1.0000
  H   H9        1.0  0.68823  0.60893  0.87018  1.0000
  H   H10       1.0  0.31177  0.39108  0.12982  1.0000
  H   H11       1.0  0.82329  0.61105  0.95519  1.0000
  H   H12       1.0  0.17672  0.38895  0.04481  1.0000
  H   H13       1.0  0.17936  0.15010  0.11288  1.0000
  H   H14       1.0  0.82063  0.84990  0.88712  1.0000
  H   H15       1.0  0.37105  0.68586  0.09985  1.0000
  H   H16       1.0  0.62895  0.31414  0.90015  1.0000
  H   H17       1.0  0.22821  0.01053  0.77862  1.0000
  H   H18       1.0  0.77179  0.98947  0.22138  1.0000
  C   C1        1.0  0.16040  0.25812  0.86588  1.0000
  C   C2        1.0  0.83960  0.74188  0.13413  1.0000
  C   C3        1.0  0.21012  0.09910  0.93471  1.0000
  C   C4        1.0  0.78988  0.90089  0.06529  1.0000
  C   C5        1.0  0.21662  0.06395  0.06026  1.0000
  C   C6        1.0  0.78338  0.93605  0.93975  1.0000
  C   C7        1.0  0.27344  0.91529  0.11606  1.0000
  C   C8        1.0  0.72656  0.08470  0.88394  1.0000
  C   C9        1.0  0.32482  0.80017  0.05279  1.0000
  C   C10       1.0  0.67517  0.19983  0.94721  1.0000
  C   C11       1.0  0.30247  0.83420  0.93150  1.0000
  C   C12       1.0  0.69752  0.16579  0.06850  1.0000
  C   C13       1.0  0.24579  0.98321  0.87326  1.0000
  C   C14       1.0  0.75421  0.01679  0.12674  1.0000
  C   C15       1.0  0.32495  0.71140  0.86518  1.0000
  C   C16       1.0  0.67505  0.28860  0.13482  1.0000
  C   C17       1.0  0.10658  0.50092  0.45771  1.0000
  C   C18       1.0  0.89341  0.49908  0.54227  1.0000
  N   N1        1.0  0.28028  0.87690  0.24709  1.0000
  N   N2        1.0  0.71972  0.12310  0.75291  1.0000
  O   O1        1.0  0.15749  0.36989  0.91122  1.0000
  O   O2        1.0  0.84251  0.63011  0.08878  1.0000
  O   O3        1.0  0.12383  0.28193  0.76114  1.0000
  O   O4        1.0  0.87618  0.71806  0.23886  1.0000
  O   O5        1.0  0.16356  0.94782  0.32301  1.0000
  O   O6        1.0  0.83643  0.05218  0.67699  1.0000
  O   O7        1.0  0.39867  0.77691  0.27863  1.0000
  O   O8        1.0  0.60133  0.22310  0.72137  1.0000
  O   O9        1.0  0.47021  0.61734  0.85855  1.0000
  O   O10       1.0  0.52979  0.38266  0.14145  1.0000
  O   O11       1.0  0.19020  0.71299  0.81951  1.0000
  O   O12       1.0  0.80980  0.28701  0.18049  1.0000
  O   O13       1.0  0.22658  0.52458  0.50625  1.0000
  O   O14       1.0  0.77342  0.47543  0.49374  1.0000
  O   O15       1.0  0.43835  0.53945  0.66151  1.0000
  O   O16       1.0  0.56165  0.46055  0.33849  1.0000
  O   O17       1.0  0.08615  0.80779  0.58875  1.0000
  O   O18       1.0  0.91385  0.19222  0.41125  1.0000
  O   O19       1.0  0.82436  0.60056  0.87101  1.0000
  O   O20       1.0  0.17564  0.39943  0.12898  1.0000
  O   O21       1.0  0.14550  0.47964  0.34852  1.0000
  O   O22       1.0  0.85450  0.52037  0.65148  1.0000
