data_image0
_chemical_formula_structural       Zn4H16C12N12O12
_chemical_formula_sum              "Zn4 H16 C12 N12 O12"
_cell_length_a       7.68167
_cell_length_b       8.58358
_cell_length_c       9.99841
_cell_angle_alpha    89.9999
_cell_angle_beta     102.746
_cell_angle_gamma    89.9998

_space_group_name_H-M_alt    "P 1"
_space_group_IT_number       1

loop_
  _space_group_symop_operation_xyz
  'x, y, z'

loop_
  _atom_site_type_symbol
  _atom_site_label
  _atom_site_symmetry_multiplicity
  _atom_site_fract_x
  _atom_site_fract_y
  _atom_site_fract_z
  _atom_site_occupancy
  Zn  Zn1       1.0  0.21013  0.53619  0.13784  1.0000
  Zn  Zn2       1.0  0.78987  0.03619  0.36216  1.0000
  Zn  Zn3       1.0  0.78986  0.46382  0.86215  1.0000
  Zn  Zn4       1.0  0.21014  0.96382  0.63785  1.0000
  H   H1        1.0  0.92169  0.81549  0.13732  1.0000
  H   H2        1.0  0.07831  0.31548  0.36268  1.0000
  H   H3        1.0  0.07832  0.18452  0.86269  1.0000
  H   H4        1.0  0.92168  0.68452  0.63732  1.0000
  H   H5        1.0  0.32468  0.65865  0.46406  1.0000
  H   H6        1.0  0.67533  0.15865  0.03594  1.0000
  H   H7        1.0  0.67533  0.34136  0.53595  1.0000
  H   H8        1.0  0.32467  0.84135  0.96406  1.0000
  H   H9        1.0  0.50450  0.48624  0.29954  1.0000
  H   H10       1.0  0.49549  0.98625  0.20047  1.0000
  H   H11       1.0  0.49549  0.51375  0.70047  1.0000
  H   H12       1.0  0.50452  0.01374  0.79954  1.0000
  H   H13       1.0  0.42808  0.32126  0.32881  1.0000
  H   H14       1.0  0.57191  0.82127  0.17119  1.0000
  H   H15       1.0  0.57191  0.67873  0.67119  1.0000
  H   H16       1.0  0.42809  0.17873  0.82881  1.0000
  C   C1        1.0  0.00915  0.80334  0.23809  1.0000
  C   C2        1.0  0.99085  0.30333  0.26191  1.0000
  C   C3        1.0  0.99086  0.19667  0.76192  1.0000
  C   C4        1.0  0.00914  0.69667  0.73808  1.0000
  C   C5        1.0  0.21242  0.72298  0.40480  1.0000
  C   C6        1.0  0.78759  0.22299  0.09521  1.0000
  C   C7        1.0  0.78759  0.27702  0.59521  1.0000
  C   C8        1.0  0.21240  0.77702  0.90479  1.0000
  C   C9        1.0  0.55216  0.57319  0.03472  1.0000
  C   C10       1.0  0.44785  0.07318  0.46527  1.0000
  C   C11       1.0  0.44779  0.42681  0.96525  1.0000
  C   C12       1.0  0.55221  0.92681  0.53475  1.0000
  N   N1        1.0  0.14798  0.70277  0.26868  1.0000
  N   N2        1.0  0.85202  0.20277  0.23132  1.0000
  N   N3        1.0  0.85203  0.29723  0.73134  1.0000
  N   N4        1.0  0.14797  0.79723  0.76867  1.0000
  N   N5        1.0  0.98966  0.88188  0.34871  1.0000
  N   N6        1.0  0.01034  0.38188  0.15129  1.0000
  N   N7        1.0  0.01035  0.11813  0.65130  1.0000
  N   N8        1.0  0.98964  0.61813  0.84871  1.0000
  N   N9        1.0  0.12046  0.83093  0.45614  1.0000
  N   N10       1.0  0.87954  0.33094  0.04386  1.0000
  N   N11       1.0  0.87956  0.16908  0.54386  1.0000
  N   N12       1.0  0.12044  0.66908  0.95614  1.0000
  O   O1        1.0  0.68255  0.62143  0.98918  1.0000
  O   O2        1.0  0.31742  0.12141  0.51081  1.0000
  O   O3        1.0  0.31739  0.37858  0.01078  1.0000
  O   O4        1.0  0.68262  0.87858  0.48922  1.0000
  O   O5        1.0  0.49631  0.63468  0.13374  1.0000
  O   O6        1.0  0.50368  0.13467  0.36626  1.0000
  O   O7        1.0  0.50365  0.36531  0.86623  1.0000
  O   O8        1.0  0.49636  0.86531  0.63377  1.0000
  O   O9        1.0  0.40104  0.43551  0.32247  1.0000
  O   O10       1.0  0.59896  0.93552  0.17753  1.0000
  O   O11       1.0  0.59895  0.56447  0.67752  1.0000
  O   O12       1.0  0.40105  0.06447  0.82248  1.0000
