data_image0
_chemical_formula_structural       U2H32C40N4O12
_chemical_formula_sum              "U2 H32 C40 N4 O12"
_cell_length_a       9.85432
_cell_length_b       10.4348
_cell_length_c       11.7545
_cell_angle_alpha    116.157
_cell_angle_beta     91.4572
_cell_angle_gamma    115.965

_space_group_name_H-M_alt    "P 1"
_space_group_IT_number       1

loop_
  _space_group_symop_operation_xyz
  'x, y, z'

loop_
  _atom_site_type_symbol
  _atom_site_label
  _atom_site_symmetry_multiplicity
  _atom_site_fract_x
  _atom_site_fract_y
  _atom_site_fract_z
  _atom_site_occupancy
  U   U1        1.0  0.46407  0.79280  0.19547  1.0000
  U   U2        1.0  0.53593  0.20719  0.80452  1.0000
  H   H1        1.0  0.41664  0.76585  0.89289  1.0000
  H   H2        1.0  0.58337  0.23415  0.10711  1.0000
  H   H3        1.0  0.12990  0.58256  0.57009  1.0000
  H   H4        1.0  0.87010  0.41744  0.42990  1.0000
  H   H5        1.0  0.28169  0.55706  0.62414  1.0000
  H   H6        1.0  0.71832  0.44294  0.37586  1.0000
  H   H7        1.0  0.31977  0.75592  0.66364  1.0000
  H   H8        1.0  0.68023  0.24408  0.33636  1.0000
  H   H9        1.0  0.93443  0.55662  0.69621  1.0000
  H   H10       1.0  0.06558  0.44338  0.30379  1.0000
  H   H11       1.0  0.87112  0.59420  0.90591  1.0000
  H   H12       1.0  0.12888  0.40580  0.09409  1.0000
  H   H13       1.0  0.83280  0.64615  0.08552  1.0000
  H   H14       1.0  0.16720  0.35386  0.91448  1.0000
  H   H15       1.0  0.80424  0.71407  0.30876  1.0000
  H   H16       1.0  0.19576  0.28593  0.69124  1.0000
  H   H17       1.0  0.14744  0.88298  0.59252  1.0000
  H   H18       1.0  0.85255  0.11702  0.40748  1.0000
  H   H19       1.0  0.94386  0.73069  0.53033  1.0000
  H   H20       1.0  0.05614  0.26931  0.46967  1.0000
  H   H21       1.0  0.00537  0.93600  0.57040  1.0000
  H   H22       1.0  0.99463  0.06400  0.42960  1.0000
  H   H23       1.0  0.29019  0.86456  0.43310  1.0000
  H   H24       1.0  0.70981  0.13544  0.56690  1.0000
  H   H25       1.0  0.27019  0.36700  0.31305  1.0000
  H   H26       1.0  0.72981  0.63300  0.68695  1.0000
  H   H27       1.0  0.71374  0.78654  0.57619  1.0000
  H   H28       1.0  0.28626  0.21346  0.42381  1.0000
  H   H29       1.0  0.02692  0.01520  0.21702  1.0000
  H   H30       1.0  0.97308  0.98480  0.78297  1.0000
  H   H31       1.0  0.73757  0.90503  0.87060  1.0000
  H   H32       1.0  0.26243  0.09497  0.12940  1.0000
  C   C1        1.0  0.29402  0.72557  0.89178  1.0000
  C   C2        1.0  0.70598  0.27443  0.10821  1.0000
  C   C3        1.0  0.18243  0.65930  0.77616  1.0000
  C   C4        1.0  0.81757  0.34070  0.22384  1.0000
  C   C5        1.0  0.23046  0.63776  0.65205  1.0000
  C   C6        1.0  0.76954  0.36224  0.34795  1.0000
  C   C7        1.0  0.02801  0.61235  0.78303  1.0000
  C   C8        1.0  0.97200  0.38765  0.21697  1.0000
  C   C9        1.0  0.99169  0.63224  0.90099  1.0000
  C   C10       1.0  0.00832  0.36776  0.09901  1.0000
  C   C11       1.0  0.11002  0.69774  0.01155  1.0000
  C   C12       1.0  0.88999  0.30226  0.98845  1.0000
  C   C13       1.0  0.07950  0.72248  0.13930  1.0000
  C   C14       1.0  0.92050  0.27752  0.86070  1.0000
  C   C15       1.0  0.93346  0.69490  0.16339  1.0000
  C   C16       1.0  0.06655  0.30510  0.83661  1.0000
  C   C17       1.0  0.91672  0.73101  0.28903  1.0000
  C   C18       1.0  0.08327  0.26899  0.71097  1.0000
  C   C19       1.0  0.03557  0.83791  0.52827  1.0000
  C   C20       1.0  0.96443  0.16208  0.47173  1.0000
  C   C21       1.0  0.04575  0.79485  0.39053  1.0000
  C   C22       1.0  0.95425  0.20515  0.60947  1.0000
  C   C23       1.0  0.18664  0.81675  0.35808  1.0000
  C   C24       1.0  0.81336  0.18325  0.64192  1.0000
  C   C25       1.0  0.48236  0.67350  0.37046  1.0000
  C   C26       1.0  0.51764  0.32650  0.62954  1.0000
  C   C27       1.0  0.49134  0.58514  0.43845  1.0000
  C   C28       1.0  0.50866  0.41486  0.56154  1.0000
  C   C29       1.0  0.37009  0.42413  0.39525  1.0000
  C   C30       1.0  0.62991  0.57587  0.60475  1.0000
  C   C31       1.0  0.62126  0.66097  0.54361  1.0000
  C   C32       1.0  0.37874  0.33903  0.45639  1.0000
  C   C33       1.0  0.73038  0.90455  0.10032  1.0000
  C   C34       1.0  0.26962  0.09545  0.89968  1.0000
  C   C35       1.0  0.86927  0.95512  0.04862  1.0000
  C   C36       1.0  0.13074  0.04488  0.95138  1.0000
  C   C37       1.0  0.01693  0.00964  0.12232  1.0000
  C   C38       1.0  0.98307  0.99037  0.87768  1.0000
  C   C39       1.0  0.85280  0.94612  0.92614  1.0000
  C   C40       1.0  0.14720  0.05389  0.07386  1.0000
  N   N1        1.0  0.26068  0.74415  0.00603  1.0000
  N   N2        1.0  0.73932  0.25585  0.99397  1.0000
  N   N3        1.0  0.20302  0.77975  0.23633  1.0000
  N   N4        1.0  0.79698  0.22025  0.76367  1.0000
  O   O1        1.0  0.39963  0.58293  0.06959  1.0000
  O   O2        1.0  0.60037  0.41707  0.93042  1.0000
  O   O3        1.0  0.53056  0.00424  0.32099  1.0000
  O   O4        1.0  0.46944  0.99577  0.67901  1.0000
  O   O5        1.0  0.60608  0.89931  0.05763  1.0000
  O   O6        1.0  0.39392  0.10068  0.94237  1.0000
  O   O7        1.0  0.73442  0.86468  0.18820  1.0000
  O   O8        1.0  0.26558  0.13532  0.81180  1.0000
  O   O9        1.0  0.34874  0.64017  0.31531  1.0000
  O   O10       1.0  0.65126  0.35983  0.68468  1.0000
  O   O11       1.0  0.60782  0.77836  0.36314  1.0000
  O   O12       1.0  0.39219  0.22165  0.63686  1.0000
