data_image0
_chemical_formula_structural       Rb4H32C28N4O24
_chemical_formula_sum              "Rb4 H32 C28 N4 O24"
_cell_length_a       5.80375
_cell_length_b       7.02399
_cell_length_c       24.2733
_cell_angle_alpha    90.0014
_cell_angle_beta     94.944
_cell_angle_gamma    90.0012

_space_group_name_H-M_alt    "P 1"
_space_group_IT_number       1

loop_
  _space_group_symop_operation_xyz
  'x, y, z'

loop_
  _atom_site_type_symbol
  _atom_site_label
  _atom_site_symmetry_multiplicity
  _atom_site_fract_x
  _atom_site_fract_y
  _atom_site_fract_z
  _atom_site_occupancy
  Rb  Rb1       1.0  0.24719  0.31311  0.02208  1.0000
  Rb  Rb2       1.0  0.25283  0.81312  0.47792  1.0000
  Rb  Rb3       1.0  0.75283  0.68688  0.97792  1.0000
  Rb  Rb4       1.0  0.74718  0.18690  0.52208  1.0000
  H   H1        1.0  0.21732  0.60887  0.67855  1.0000
  H   H2        1.0  0.28266  0.10886  0.82145  1.0000
  H   H3        1.0  0.78268  0.39114  0.32145  1.0000
  H   H4        1.0  0.71733  0.89113  0.17855  1.0000
  H   H5        1.0  0.40477  0.62979  0.77533  1.0000
  H   H6        1.0  0.09522  0.12980  0.72467  1.0000
  H   H7        1.0  0.59525  0.37020  0.22467  1.0000
  H   H8        1.0  0.90477  0.87020  0.27533  1.0000
  H   H9        1.0  0.80367  0.37345  0.83682  1.0000
  H   H10       1.0  0.69630  0.87345  0.66317  1.0000
  H   H11       1.0  0.19634  0.62655  0.16318  1.0000
  H   H12       1.0  0.30369  0.12655  0.33682  1.0000
  H   H13       1.0  0.61880  0.35075  0.73924  1.0000
  H   H14       1.0  0.88117  0.85076  0.76075  1.0000
  H   H15       1.0  0.38120  0.64926  0.26077  1.0000
  H   H16       1.0  0.11882  0.14924  0.23924  1.0000
  H   H17       1.0  0.36776  0.02672  0.91942  1.0000
  H   H18       1.0  0.13222  0.52675  0.58059  1.0000
  H   H19       1.0  0.63224  0.97327  0.08058  1.0000
  H   H20       1.0  0.86777  0.47327  0.41942  1.0000
  H   H21       1.0  0.10236  0.96894  0.91130  1.0000
  H   H22       1.0  0.39761  0.46896  0.58870  1.0000
  H   H23       1.0  0.89764  0.03105  0.08870  1.0000
  H   H24       1.0  0.60238  0.53105  0.41130  1.0000
  H   H25       1.0  0.28312  0.79121  0.05017  1.0000
  H   H26       1.0  0.21689  0.29122  0.44983  1.0000
  H   H27       1.0  0.71688  0.20878  0.94983  1.0000
  H   H28       1.0  0.78312  0.70880  0.55017  1.0000
  H   H29       1.0  0.25687  0.82277  0.98589  1.0000
  H   H30       1.0  0.24311  0.32279  0.51411  1.0000
  H   H31       1.0  0.74313  0.17722  0.01411  1.0000
  H   H32       1.0  0.75688  0.67723  0.48589  1.0000
  C   C1        1.0  0.90428  0.48203  0.70348  1.0000
  C   C2        1.0  0.59571  0.98203  0.79652  1.0000
  C   C3        1.0  0.09572  0.51797  0.29652  1.0000
  C   C4        1.0  0.40429  0.01797  0.20348  1.0000
  C   C5        1.0  0.12739  0.55813  0.71324  1.0000
  C   C6        1.0  0.37260  0.05812  0.78676  1.0000
  C   C7        1.0  0.87261  0.44188  0.28676  1.0000
  C   C8        1.0  0.62740  0.94187  0.21324  1.0000
  C   C9        1.0  0.23286  0.56963  0.76680  1.0000
  C   C10       1.0  0.26711  0.06962  0.73320  1.0000
  C   C11       1.0  0.76714  0.43037  0.23320  1.0000
  C   C12       1.0  0.73287  0.93037  0.26680  1.0000
  C   C13       1.0  0.11219  0.50433  0.81037  1.0000
  C   C14       1.0  0.38779  0.00433  0.68962  1.0000
  C   C15       1.0  0.88782  0.49566  0.18963  1.0000
  C   C16       1.0  0.61220  0.99567  0.31037  1.0000
  C   C17       1.0  0.89196  0.42364  0.80182  1.0000
  C   C18       1.0  0.60801  0.92364  0.69817  1.0000
  C   C19       1.0  0.10804  0.57636  0.19818  1.0000
  C   C20       1.0  0.39198  0.07636  0.30182  1.0000
  C   C21       1.0  0.79029  0.41194  0.74791  1.0000
  C   C22       1.0  0.70968  0.91193  0.75208  1.0000
  C   C23       1.0  0.20971  0.58807  0.25209  1.0000
  C   C24       1.0  0.29031  0.08806  0.24791  1.0000
  C   C25       1.0  0.78083  0.48325  0.64598  1.0000
  C   C26       1.0  0.71915  0.98324  0.85401  1.0000
  C   C27       1.0  0.21917  0.51676  0.35402  1.0000
  C   C28       1.0  0.28085  0.01675  0.14599  1.0000
  N   N1        1.0  0.22078  0.52048  0.86682  1.0000
  N   N2        1.0  0.27919  0.02051  0.63318  1.0000
  N   N3        1.0  0.77922  0.47950  0.13319  1.0000
  N   N4        1.0  0.72080  0.97951  0.36682  1.0000
  O   O1        1.0  0.23039  0.00277  0.94021  1.0000
  O   O2        1.0  0.26959  0.50281  0.55979  1.0000
  O   O3        1.0  0.76961  0.99721  0.05979  1.0000
  O   O4        1.0  0.73040  0.49721  0.44021  1.0000
  O   O5        1.0  0.26628  0.72033  0.01473  1.0000
  O   O6        1.0  0.23372  0.22035  0.48527  1.0000
  O   O7        1.0  0.73373  0.27965  0.98527  1.0000
  O   O8        1.0  0.76628  0.77967  0.51473  1.0000
  O   O9        1.0  0.58731  0.39946  0.63923  1.0000
  O   O10       1.0  0.91267  0.89946  0.86076  1.0000
  O   O11       1.0  0.41269  0.60055  0.36077  1.0000
  O   O12       1.0  0.08733  0.10053  0.13924  1.0000
  O   O13       1.0  0.87862  0.57319  0.60865  1.0000
  O   O14       1.0  0.62136  0.07317  0.89135  1.0000
  O   O15       1.0  0.12137  0.42682  0.39135  1.0000
  O   O16       1.0  0.37864  0.92682  0.10865  1.0000
  O   O17       1.0  0.42069  0.58526  0.87361  1.0000
  O   O18       1.0  0.07930  0.08528  0.62639  1.0000
  O   O19       1.0  0.57933  0.41472  0.12639  1.0000
  O   O20       1.0  0.92069  0.91472  0.37361  1.0000
  O   O21       1.0  0.10807  0.46724  0.90530  1.0000
  O   O22       1.0  0.39191  0.96727  0.59469  1.0000
  O   O23       1.0  0.89195  0.53274  0.09470  1.0000
  O   O24       1.0  0.60809  0.03277  0.40531  1.0000
