data_image0
_chemical_formula_structural       Zn2H22C20N8Cl2O8
_chemical_formula_sum              "Zn2 H22 C20 N8 Cl2 O8"
_cell_length_a       7.58038
_cell_length_b       7.87492
_cell_length_c       10.9428
_cell_angle_alpha    95.7992
_cell_angle_beta     88.4843
_cell_angle_gamma    105.643

_space_group_name_H-M_alt    "P 1"
_space_group_IT_number       1

loop_
  _space_group_symop_operation_xyz
  'x, y, z'

loop_
  _atom_site_type_symbol
  _atom_site_label
  _atom_site_symmetry_multiplicity
  _atom_site_fract_x
  _atom_site_fract_y
  _atom_site_fract_z
  _atom_site_occupancy
  Zn  Zn1       1.0  0.30058  0.33192  0.22346  1.0000
  Zn  Zn2       1.0  0.69942  0.66807  0.77655  1.0000
  H   H1        1.0  0.38799  0.08832  0.71144  1.0000
  H   H2        1.0  0.61202  0.91173  0.28858  1.0000
  H   H3        1.0  0.02495  0.13623  0.58794  1.0000
  H   H4        1.0  0.97504  0.86379  0.41207  1.0000
  H   H5        1.0  0.04843  0.36281  0.58989  1.0000
  H   H6        1.0  0.95157  0.63721  0.41010  1.0000
  H   H7        1.0  0.70960  0.05242  0.74023  1.0000
  H   H8        1.0  0.29041  0.94760  0.25978  1.0000
  H   H9        1.0  0.36817  0.25447  0.52176  1.0000
  H   H10       1.0  0.63183  0.74556  0.47825  1.0000
  H   H11       1.0  0.67724  0.32163  0.42575  1.0000
  H   H12       1.0  0.32275  0.67839  0.57425  1.0000
  H   H13       1.0  0.13405  0.84663  0.88130  1.0000
  H   H14       1.0  0.86596  0.15336  0.11868  1.0000
  H   H15       1.0  0.36715  0.87971  0.90603  1.0000
  H   H16       1.0  0.63285  0.12027  0.09396  1.0000
  H   H17       1.0  0.45330  0.64282  0.05153  1.0000
  H   H18       1.0  0.54670  0.35716  0.94849  1.0000
  H   H19       1.0  0.93067  0.46569  0.21269  1.0000
  H   H20       1.0  0.06933  0.53431  0.78731  1.0000
  H   H21       1.0  0.92072  0.72035  0.08718  1.0000
  H   H22       1.0  0.07929  0.27966  0.91284  1.0000
  C   C1        1.0  0.02357  0.22812  0.40880  1.0000
  C   C2        1.0  0.97643  0.77186  0.59120  1.0000
  C   C3        1.0  0.97148  0.23312  0.54539  1.0000
  C   C4        1.0  0.02852  0.76689  0.45461  1.0000
  C   C5        1.0  0.77250  0.19964  0.57244  1.0000
  C   C6        1.0  0.22749  0.80037  0.42756  1.0000
  C   C7        1.0  0.67115  0.11718  0.66594  1.0000
  C   C8        1.0  0.32886  0.88284  0.33406  1.0000
  C   C9        1.0  0.48662  0.22270  0.55777  1.0000
  C   C10       1.0  0.51338  0.77732  0.44224  1.0000
  C   C11       1.0  0.25109  0.06677  0.00981  1.0000
  C   C12       1.0  0.74892  0.93321  0.99018  1.0000
  C   C13       1.0  0.23769  0.87753  0.95467  1.0000
  C   C14       1.0  0.76231  0.12246  0.04533  1.0000
  C   C15       1.0  0.20279  0.73680  0.03982  1.0000
  C   C16       1.0  0.79721  0.26319  0.96018  1.0000
  C   C17       1.0  0.31147  0.63515  0.07439  1.0000
  C   C18       1.0  0.68852  0.36483  0.92561  1.0000
  C   C19       1.0  0.04511  0.54150  0.16231  1.0000
  C   C20       1.0  0.95488  0.45849  0.83769  1.0000
  N   N1        1.0  0.49544  0.13376  0.65444  1.0000
  N   N2        1.0  0.50457  0.86627  0.34556  1.0000
  N   N3        1.0  0.65325  0.26307  0.50726  1.0000
  N   N4        1.0  0.34675  0.73694  0.49274  1.0000
  N   N5        1.0  0.21154  0.51407  0.15061  1.0000
  N   N6        1.0  0.78846  0.48592  0.84939  1.0000
  N   N7        1.0  0.03591  0.67519  0.09717  1.0000
  N   N8        1.0  0.96409  0.32481  0.90283  1.0000
  Cl  Cl1       1.0  0.60523  0.43802  0.26784  1.0000
  Cl  Cl2       1.0  0.39477  0.56196  0.73217  1.0000
  O   O1        1.0  0.19776  0.29176  0.39143  1.0000
  O   O2        1.0  0.80223  0.70824  0.60857  1.0000
  O   O3        1.0  0.90540  0.16928  0.32698  1.0000
  O   O4        1.0  0.09461  0.83063  0.67302  1.0000
  O   O5        1.0  0.26405  0.09692  0.12802  1.0000
  O   O6        1.0  0.73595  0.90308  0.87197  1.0000
  O   O7        1.0  0.25269  0.18048  0.93700  1.0000
  O   O8        1.0  0.74732  0.81951  0.06297  1.0000
