data_image0
_chemical_formula_structural       MnH10C8N12
_chemical_formula_sum              "Mn1 H10 C8 N12"
_cell_length_a       3.39239
_cell_length_b       7.78934
_cell_length_c       11.9772
_cell_angle_alpha    103.099
_cell_angle_beta     95.2425
_cell_angle_gamma    94.3222

_space_group_name_H-M_alt    "P 1"
_space_group_IT_number       1

loop_
  _space_group_symop_operation_xyz
  'x, y, z'

loop_
  _atom_site_type_symbol
  _atom_site_label
  _atom_site_symmetry_multiplicity
  _atom_site_fract_x
  _atom_site_fract_y
  _atom_site_fract_z
  _atom_site_occupancy
  Mn  Mn1       1.0  0.50001  0.50000  0.00000  1.0000
  H   H1        1.0  0.30744  0.10208  0.29198  1.0000
  H   H2        1.0  0.69256  0.89792  0.70802  1.0000
  H   H3        1.0  0.41628  0.10413  0.43884  1.0000
  H   H4        1.0  0.58371  0.89587  0.56116  1.0000
  H   H5        1.0  0.43078  0.86320  0.13734  1.0000
  H   H6        1.0  0.56922  0.13680  0.86266  1.0000
  H   H7        1.0  0.76858  0.55218  0.43509  1.0000
  H   H8        1.0  0.23142  0.44781  0.56491  1.0000
  H   H9        1.0  0.69437  0.39389  0.22852  1.0000
  H   H10       1.0  0.30564  0.60611  0.77148  1.0000
  C   C1        1.0  0.50297  0.79202  0.20340  1.0000
  C   C2        1.0  0.49704  0.20798  0.79660  1.0000
  C   C3        1.0  0.52636  0.87991  0.32166  1.0000
  C   C4        1.0  0.47364  0.12009  0.67834  1.0000
  C   C5        1.0  0.68722  0.62269  0.36849  1.0000
  C   C6        1.0  0.31278  0.37731  0.63151  1.0000
  C   C7        1.0  0.65038  0.53330  0.25375  1.0000
  C   C8        1.0  0.34962  0.46670  0.74626  1.0000
  N   N1        1.0  0.01000  0.34273  0.02534  1.0000
  N   N2        1.0  0.98997  0.65728  0.97466  1.0000
  N   N3        1.0  0.01622  0.22936  0.07967  1.0000
  N   N4        1.0  0.98376  0.77065  0.92033  1.0000
  N   N5        1.0  0.01544  0.11795  0.13013  1.0000
  N   N6        1.0  0.98456  0.88206  0.86986  1.0000
  N   N7        1.0  0.55858  0.62033  0.16925  1.0000
  N   N8        1.0  0.44143  0.37967  0.83075  1.0000
  N   N9        1.0  0.62598  0.79344  0.40475  1.0000
  N   N10       1.0  0.37402  0.20656  0.59525  1.0000
  N   N11       1.0  0.45366  0.05128  0.35322  1.0000
  N   N12       1.0  0.54634  0.94872  0.64678  1.0000
