data_image0
_chemical_formula_structural       HgH12C16N4Cl2O2
_chemical_formula_sum              "Hg1 H12 C16 N4 Cl2 O2"
_cell_length_a       3.8048
_cell_length_b       8.6066
_cell_length_c       12.9141
_cell_angle_alpha    94.7658
_cell_angle_beta     92.8567
_cell_angle_gamma    99.0649

_space_group_name_H-M_alt    "P 1"
_space_group_IT_number       1

loop_
  _space_group_symop_operation_xyz
  'x, y, z'

loop_
  _atom_site_type_symbol
  _atom_site_label
  _atom_site_symmetry_multiplicity
  _atom_site_fract_x
  _atom_site_fract_y
  _atom_site_fract_z
  _atom_site_occupancy
  Hg  Hg1       1.0  0.50000  0.50000  0.50000  1.0000
  H   H1        1.0  0.89638  0.62376  0.02522  1.0000
  H   H2        1.0  0.10362  0.37624  0.97478  1.0000
  H   H3        1.0  0.65475  0.33796  0.27194  1.0000
  H   H4        1.0  0.34524  0.66204  0.72806  1.0000
  H   H5        1.0  0.77417  0.89373  0.03494  1.0000
  H   H6        1.0  0.22583  0.10627  0.96506  1.0000
  H   H7        1.0  0.58786  0.11616  0.14134  1.0000
  H   H8        1.0  0.41213  0.88383  0.85866  1.0000
  H   H9        1.0  0.37163  0.07890  0.31935  1.0000
  H   H10       1.0  0.62836  0.92110  0.68065  1.0000
  H   H11       1.0  0.35537  0.81844  0.39110  1.0000
  H   H12       1.0  0.64463  0.18156  0.60890  1.0000
  C   C1        1.0  0.65617  0.45064  0.23883  1.0000
  C   C2        1.0  0.34383  0.54936  0.76117  1.0000
  C   C3        1.0  0.78956  0.46398  0.13563  1.0000
  C   C4        1.0  0.21045  0.53602  0.86437  1.0000
  C   C5        1.0  0.67587  0.73222  0.15346  1.0000
  C   C6        1.0  0.32414  0.26778  0.84654  1.0000
  C   C7        1.0  0.68182  0.87862  0.11259  1.0000
  C   C8        1.0  0.31819  0.12138  0.88741  1.0000
  C   C9        1.0  0.57517  0.00180  0.17276  1.0000
  C   C10       1.0  0.42482  0.99820  0.82724  1.0000
  C   C11       1.0  0.45844  0.98158  0.27332  1.0000
  C   C12       1.0  0.54155  0.01842  0.72668  1.0000
  C   C13       1.0  0.44815  0.83721  0.31396  1.0000
  C   C14       1.0  0.55184  0.16279  0.68604  1.0000
  C   C15       1.0  0.55777  0.71028  0.25478  1.0000
  C   C16       1.0  0.44224  0.28972  0.74522  1.0000
  N   N1        1.0  0.55111  0.56603  0.29449  1.0000
  N   N2        1.0  0.44889  0.43396  0.70551  1.0000
  N   N3        1.0  0.78633  0.60713  0.09783  1.0000
  N   N4        1.0  0.21368  0.39287  0.90217  1.0000
  Cl  Cl1       1.0  0.95813  0.72033  0.55189  1.0000
  Cl  Cl2       1.0  0.04187  0.27968  0.44811  1.0000
  O   O1        1.0  0.90475  0.35224  0.08554  1.0000
  O   O2        1.0  0.09525  0.64776  0.91446  1.0000
