data_image0
_chemical_formula_structural       Na2H20C10N14O4
_chemical_formula_sum              "Na2 H20 C10 N14 O4"
_cell_length_a       6.98379
_cell_length_b       8.25344
_cell_length_c       8.43209
_cell_angle_alpha    92.45
_cell_angle_beta     91.2631
_cell_angle_gamma    105.222

_space_group_name_H-M_alt    "P 1"
_space_group_IT_number       1

loop_
  _space_group_symop_operation_xyz
  'x, y, z'

loop_
  _atom_site_type_symbol
  _atom_site_label
  _atom_site_symmetry_multiplicity
  _atom_site_fract_x
  _atom_site_fract_y
  _atom_site_fract_z
  _atom_site_occupancy
  Na  Na1       1.0  0.36383  0.91398  0.82928  1.0000
  Na  Na2       1.0  0.63617  0.08602  0.17072  1.0000
  H   H1        1.0  0.51722  0.81752  0.51556  1.0000
  H   H2        1.0  0.48278  0.18248  0.48444  1.0000
  H   H3        1.0  0.28944  0.81765  0.49679  1.0000
  H   H4        1.0  0.71056  0.18235  0.50321  1.0000
  H   H5        1.0  0.81498  0.00193  0.86204  1.0000
  H   H6        1.0  0.18502  0.99807  0.13796  1.0000
  H   H7        1.0  0.71448  0.83580  0.94842  1.0000
  H   H8        1.0  0.28552  0.16420  0.05158  1.0000
  H   H9        1.0  0.28409  0.74905  0.20225  1.0000
  H   H10       1.0  0.71591  0.25095  0.79775  1.0000
  H   H11       1.0  0.23747  0.43682  0.78904  1.0000
  H   H12       1.0  0.76253  0.56318  0.21096  1.0000
  H   H13       1.0  0.41433  0.36559  0.32284  1.0000
  H   H14       1.0  0.58567  0.63441  0.67716  1.0000
  H   H15       1.0  0.34789  0.54622  0.40199  1.0000
  H   H16       1.0  0.65211  0.45378  0.59801  1.0000
  H   H17       1.0  0.04606  0.22522  0.27006  1.0000
  H   H18       1.0  0.95394  0.77478  0.72995  1.0000
  H   H19       1.0  0.98835  0.39635  0.37213  1.0000
  H   H20       1.0  0.01165  0.60365  0.62787  1.0000
  C   C1        1.0  0.27832  0.64527  0.11749  1.0000
  C   C2        1.0  0.72168  0.35473  0.88251  1.0000
  C   C3        1.0  0.25161  0.48325  0.91225  1.0000
  C   C4        1.0  0.74839  0.51675  0.08775  1.0000
  C   C5        1.0  0.29939  0.43415  0.32125  1.0000
  C   C6        1.0  0.70061  0.56585  0.67875  1.0000
  C   C7        1.0  0.09836  0.32271  0.36596  1.0000
  C   C8        1.0  0.90164  0.67729  0.63404  1.0000
  C   C9        1.0  0.10319  0.23737  0.51767  1.0000
  C   C10       1.0  0.89681  0.76263  0.48233  1.0000
  N   N1        1.0  0.25773  0.64466  0.95946  1.0000
  N   N2        1.0  0.74227  0.35534  0.04054  1.0000
  N   N3        1.0  0.26715  0.38583  0.03120  1.0000
  N   N4        1.0  0.73285  0.61417  0.96880  1.0000
  N   N5        1.0  0.28536  0.49232  0.16187  1.0000
  N   N6        1.0  0.71464  0.50768  0.83812  1.0000
  N   N7        1.0  0.25780  0.18803  0.57741  1.0000
  N   N8        1.0  0.74221  0.81197  0.42259  1.0000
  N   N9        1.0  0.19112  0.10546  0.70803  1.0000
  N   N10       1.0  0.80888  0.89454  0.29197  1.0000
  N   N11       1.0  0.00382  0.10551  0.72634  1.0000
  N   N12       1.0  0.99618  0.89449  0.27366  1.0000
  N   N13       1.0  0.94429  0.18787  0.60859  1.0000
  N   N14       1.0  0.05571  0.81213  0.39141  1.0000
  O   O1        1.0  0.39151  0.80204  0.57430  1.0000
  O   O2        1.0  0.60849  0.19796  0.42570  1.0000
  O   O3        1.0  0.69715  0.94792  0.92416  1.0000
  O   O4        1.0  0.30285  0.05208  0.07584  1.0000
