data_image0
_chemical_formula_structural       Cu2H28C28I2N4O4
_chemical_formula_sum              "Cu2 H28 C28 I2 N4 O4"
_cell_length_a       4.15571
_cell_length_b       12.2463
_cell_length_c       14.8603
_cell_angle_alpha    106.765
_cell_angle_beta     89.9996
_cell_angle_gamma    90.0004

_space_group_name_H-M_alt    "P 1"
_space_group_IT_number       1

loop_
  _space_group_symop_operation_xyz
  'x, y, z'

loop_
  _atom_site_type_symbol
  _atom_site_label
  _atom_site_symmetry_multiplicity
  _atom_site_fract_x
  _atom_site_fract_y
  _atom_site_fract_z
  _atom_site_occupancy
  Cu  Cu1       1.0  0.00892  0.27514  0.06192  1.0000
  Cu  Cu2       1.0  0.99106  0.27514  0.56192  1.0000
  H   H1        1.0  0.26368  0.21751  0.22708  1.0000
  H   H2        1.0  0.73634  0.21751  0.72709  1.0000
  H   H3        1.0  0.13674  0.08328  0.31637  1.0000
  H   H4        1.0  0.86328  0.08328  0.81637  1.0000
  H   H5        1.0  0.55213  0.89476  0.08114  1.0000
  H   H6        1.0  0.44788  0.89477  0.58114  1.0000
  H   H7        1.0  0.67939  0.04681  0.00440  1.0000
  H   H8        1.0  0.32061  0.04682  0.50440  1.0000
  H   H9        1.0  0.73219  0.84982  0.38676  1.0000
  H   H10       1.0  0.26781  0.84982  0.88677  1.0000
  H   H11       1.0  0.80887  0.99848  0.39994  1.0000
  H   H12       1.0  0.19113  0.99849  0.89994  1.0000
  H   H13       1.0  0.11122  0.89539  0.35376  1.0000
  H   H14       1.0  0.88878  0.89540  0.85376  1.0000
  H   H15       1.0  0.73268  0.33084  0.25105  1.0000
  H   H16       1.0  0.26733  0.33086  0.75104  1.0000
  H   H17       1.0  0.83591  0.46587  0.40558  1.0000
  H   H18       1.0  0.16409  0.46588  0.90557  1.0000
  H   H19       1.0  0.42847  0.66022  0.26673  1.0000
  H   H20       1.0  0.57149  0.66022  0.76673  1.0000
  H   H21       1.0  0.32927  0.50605  0.11664  1.0000
  H   H22       1.0  0.67069  0.50604  0.61664  1.0000
  H   H23       1.0  0.22498  0.69608  0.59179  1.0000
  H   H24       1.0  0.77502  0.69608  0.09180  1.0000
  H   H25       1.0  0.15542  0.54817  0.53090  1.0000
  H   H26       1.0  0.84457  0.54817  0.03089  1.0000
  H   H27       1.0  0.85018  0.65064  0.53425  1.0000
  H   H28       1.0  0.14982  0.65063  0.03424  1.0000
  C   C1        1.0  0.10208  0.14616  0.19704  1.0000
  C   C2        1.0  0.89795  0.14616  0.69704  1.0000
  C   C3        1.0  0.03150  0.06906  0.24676  1.0000
  C   C4        1.0  0.96850  0.06907  0.74677  1.0000
  C   C5        1.0  0.82734  0.97704  0.20651  1.0000
  C   C6        1.0  0.17266  0.97704  0.70651  1.0000
  C   C7        1.0  0.70644  0.96642  0.11615  1.0000
  C   C8        1.0  0.29357  0.96642  0.61615  1.0000
  C   C9        1.0  0.78112  0.04917  0.07255  1.0000
  C   C10       1.0  0.21888  0.04917  0.57255  1.0000
  C   C11       1.0  0.72704  0.89428  0.25789  1.0000
  C   C12       1.0  0.27297  0.89427  0.75789  1.0000
  C   C13       1.0  0.84996  0.91045  0.35595  1.0000
  C   C14       1.0  0.15005  0.91046  0.85596  1.0000
  C   C15       1.0  0.89121  0.40349  0.25692  1.0000
  C   C16       1.0  0.10881  0.40349  0.75691  1.0000
  C   C17       1.0  0.94801  0.48109  0.34403  1.0000
  C   C18       1.0  0.05200  0.48110  0.84402  1.0000
  C   C19       1.0  0.14855  0.57470  0.34983  1.0000
  C   C20       1.0  0.85145  0.57470  0.84982  1.0000
  C   C21       1.0  0.27827  0.58688  0.26602  1.0000
  C   C22       1.0  0.72172  0.58688  0.76602  1.0000
  C   C23       1.0  0.21847  0.50308  0.18240  1.0000
  C   C24       1.0  0.78151  0.50308  0.68239  1.0000
  C   C25       1.0  0.24101  0.65625  0.44196  1.0000
  C   C26       1.0  0.75898  0.65625  0.94196  1.0000
  C   C27       1.0  0.11195  0.63672  0.53047  1.0000
  C   C28       1.0  0.88806  0.63671  0.03047  1.0000
  I   I1        1.0  0.50792  0.27602  0.95467  1.0000
  I   I2        1.0  0.49208  0.27603  0.45467  1.0000
  N   N1        1.0  0.97357  0.13960  0.11210  1.0000
  N   N2        1.0  0.02643  0.13960  0.61210  1.0000
  N   N3        1.0  0.03078  0.41093  0.17682  1.0000
  N   N4        1.0  0.96921  0.41093  0.67681  1.0000
  O   O1        1.0  0.54118  0.81560  0.21971  1.0000
  O   O2        1.0  0.45882  0.81561  0.71972  1.0000
  O   O3        1.0  0.42864  0.73530  0.44418  1.0000
  O   O4        1.0  0.57136  0.73532  0.94419  1.0000
