data_image0
_chemical_formula_structural       Cu4H28C28I4N4O4
_chemical_formula_sum              "Cu4 H28 C28 I4 N4 O4"
_cell_length_a       4.018
_cell_length_b       8.11542
_cell_length_c       26.1932
_cell_angle_alpha    89.9994
_cell_angle_beta     90.0017
_cell_angle_gamma    89.9994

_space_group_name_H-M_alt    "P 1"
_space_group_IT_number       1

loop_
  _space_group_symop_operation_xyz
  'x, y, z'

loop_
  _atom_site_type_symbol
  _atom_site_label
  _atom_site_symmetry_multiplicity
  _atom_site_fract_x
  _atom_site_fract_y
  _atom_site_fract_z
  _atom_site_occupancy
  Cu  Cu1       1.0  0.46252  0.73304  0.96506  1.0000
  Cu  Cu2       1.0  0.03748  0.26696  0.46506  1.0000
  Cu  Cu3       1.0  0.96251  0.76694  0.03494  1.0000
  Cu  Cu4       1.0  0.53750  0.23307  0.53494  1.0000
  H   H1        1.0  0.66779  0.38358  0.95299  1.0000
  H   H2        1.0  0.83218  0.61642  0.45298  1.0000
  H   H3        1.0  0.16775  0.11641  0.04702  1.0000
  H   H4        1.0  0.33221  0.88361  0.54702  1.0000
  H   H5        1.0  0.59616  0.16028  0.88976  1.0000
  H   H6        1.0  0.90381  0.83971  0.38975  1.0000
  H   H7        1.0  0.09614  0.33970  0.11025  1.0000
  H   H8        1.0  0.40381  0.66031  0.61025  1.0000
  H   H9        1.0  0.07341  0.51026  0.79378  1.0000
  H   H10       1.0  0.42661  0.48973  0.29378  1.0000
  H   H11       1.0  0.57342  0.98972  0.20622  1.0000
  H   H12       1.0  0.92662  0.01028  0.70622  1.0000
  H   H13       1.0  0.16258  0.71793  0.86180  1.0000
  H   H14       1.0  0.33744  0.28207  0.36181  1.0000
  H   H15       1.0  0.66258  0.78205  0.13819  1.0000
  H   H16       1.0  0.83748  0.21794  0.63820  1.0000
  H   H17       1.0  0.36598  0.97380  0.84393  1.0000
  H   H18       1.0  0.13409  0.02619  0.34392  1.0000
  H   H19       1.0  0.86602  0.52618  0.15607  1.0000
  H   H20       1.0  0.63396  0.47383  0.65607  1.0000
  H   H21       1.0  0.66061  0.01387  0.79536  1.0000
  H   H22       1.0  0.83940  0.98614  0.29536  1.0000
  H   H23       1.0  0.16066  0.48611  0.20464  1.0000
  H   H24       1.0  0.33932  0.51391  0.70464  1.0000
  H   H25       1.0  0.26853  0.92830  0.77842  1.0000
  H   H26       1.0  0.23147  0.07169  0.27841  1.0000
  H   H27       1.0  0.76859  0.57168  0.22158  1.0000
  H   H28       1.0  0.73138  0.42832  0.72158  1.0000
  C   C1        1.0  0.53867  0.40660  0.91705  1.0000
  C   C2        1.0  0.96131  0.59339  0.41704  1.0000
  C   C3        1.0  0.03866  0.09338  0.08296  1.0000
  C   C4        1.0  0.46133  0.90663  0.58296  1.0000
  C   C5        1.0  0.49648  0.28199  0.88123  1.0000
  C   C6        1.0  0.00350  0.71800  0.38122  1.0000
  C   C7        1.0  0.99646  0.21799  0.11877  1.0000
  C   C8        1.0  0.50352  0.78202  0.61877  1.0000
  C   C9        1.0  0.32641  0.31528  0.83573  1.0000
  C   C10       1.0  0.17358  0.68471  0.33573  1.0000
  C   C11       1.0  0.82641  0.18470  0.16427  1.0000
  C   C12       1.0  0.67358  0.81531  0.66427  1.0000
  C   C13       1.0  0.20758  0.47593  0.82829  1.0000
  C   C14       1.0  0.29243  0.52406  0.32829  1.0000
  C   C15       1.0  0.70758  0.02405  0.17171  1.0000
  C   C16       1.0  0.79245  0.97595  0.67171  1.0000
  C   C17       1.0  0.25886  0.59311  0.86595  1.0000
  C   C18       1.0  0.24115  0.40689  0.36595  1.0000
  C   C19       1.0  0.75885  0.90688  0.13405  1.0000
  C   C20       1.0  0.74118  0.09313  0.63405  1.0000
  C   C21       1.0  0.25941  0.18597  0.79631  1.0000
  C   C22       1.0  0.24059  0.81402  0.29630  1.0000
  C   C23       1.0  0.75944  0.31401  0.20370  1.0000
  C   C24       1.0  0.74055  0.68599  0.70370  1.0000
  C   C25       1.0  0.39308  0.01487  0.80418  1.0000
  C   C26       1.0  0.10695  0.98511  0.30417  1.0000
  C   C27       1.0  0.89312  0.48510  0.19582  1.0000
  C   C28       1.0  0.60686  0.51490  0.69582  1.0000
  I   I1        1.0  0.95943  0.94011  0.94976  1.0000
  I   I2        1.0  0.54056  0.05989  0.44976  1.0000
  I   I3        1.0  0.45943  0.55987  0.05024  1.0000
  I   I4        1.0  0.04058  0.44014  0.55024  1.0000
  N   N1        1.0  0.42039  0.56058  0.91014  1.0000
  N   N2        1.0  0.07961  0.43941  0.41013  1.0000
  N   N3        1.0  0.92037  0.93941  0.08986  1.0000
  N   N4        1.0  0.57963  0.06060  0.58986  1.0000
  O   O1        1.0  0.09260  0.22149  0.75816  1.0000
  O   O2        1.0  0.40739  0.77850  0.25815  1.0000
  O   O3        1.0  0.59264  0.27850  0.24185  1.0000
  O   O4        1.0  0.90737  0.72150  0.74185  1.0000
