data_image0
_chemical_formula_structural       Zn2H12C12S2O12
_chemical_formula_sum              "Zn2 H12 C12 S2 O12"
_cell_length_a       4.91303
_cell_length_b       6.5311
_cell_length_c       14.2821
_cell_angle_alpha    89.9995
_cell_angle_beta     90.0004
_cell_angle_gamma    112.245

_space_group_name_H-M_alt    "P 1"
_space_group_IT_number       1

loop_
  _space_group_symop_operation_xyz
  'x, y, z'

loop_
  _atom_site_type_symbol
  _atom_site_label
  _atom_site_symmetry_multiplicity
  _atom_site_fract_x
  _atom_site_fract_y
  _atom_site_fract_z
  _atom_site_occupancy
  Zn  Zn1       1.0  0.68870  0.99468  0.00130  1.0000
  Zn  Zn2       1.0  0.31130  0.00530  0.50129  1.0000
  H   H1        1.0  0.15348  0.36592  0.05959  1.0000
  H   H2        1.0  0.84651  0.63406  0.55958  1.0000
  H   H3        1.0  0.20951  0.37214  0.44195  1.0000
  H   H4        1.0  0.79049  0.62785  0.94195  1.0000
  H   H5        1.0  0.20850  0.13554  0.07859  1.0000
  H   H6        1.0  0.79151  0.86445  0.57859  1.0000
  H   H7        1.0  0.92679  0.13871  0.42406  1.0000
  H   H8        1.0  0.07320  0.86128  0.92406  1.0000
  H   H9        1.0  0.82947  0.33521  0.17991  1.0000
  H   H10       1.0  0.17051  0.66481  0.67990  1.0000
  H   H11       1.0  0.45902  0.33811  0.31242  1.0000
  H   H12       1.0  0.54096  0.66190  0.81243  1.0000
  C   C1        1.0  0.25292  0.76287  0.11803  1.0000
  C   C2        1.0  0.74708  0.23715  0.61802  1.0000
  C   C3        1.0  0.50179  0.76715  0.38305  1.0000
  C   C4        1.0  0.49824  0.23287  0.88305  1.0000
  C   C5        1.0  0.01569  0.69641  0.18802  1.0000
  C   C6        1.0  0.98433  0.30360  0.68801  1.0000
  C   C7        1.0  0.66506  0.69904  0.31135  1.0000
  C   C8        1.0  0.33493  0.30096  0.81136  1.0000
  C   C9        1.0  0.82485  0.48437  0.21250  1.0000
  C   C10       1.0  0.17514  0.51564  0.71250  1.0000
  C   C11       1.0  0.62579  0.48595  0.28294  1.0000
  C   C12       1.0  0.37420  0.51405  0.78295  1.0000
  S   S1        1.0  0.94688  0.89546  0.25142  1.0000
  S   S2        1.0  0.05314  0.10455  0.75142  1.0000
  O   O1        1.0  0.07033  0.19940  0.05290  1.0000
  O   O2        1.0  0.92966  0.80058  0.55289  1.0000
  O   O3        1.0  0.13073  0.20544  0.44852  1.0000
  O   O4        1.0  0.86926  0.79455  0.94851  1.0000
  O   O5        1.0  0.40308  0.97434  0.10766  1.0000
  O   O6        1.0  0.59693  0.02567  0.60765  1.0000
  O   O7        1.0  0.57127  0.97894  0.39492  1.0000
  O   O8        1.0  0.42873  0.02106  0.89493  1.0000
  O   O9        1.0  0.31320  0.62447  0.06957  1.0000
  O   O10       1.0  0.68683  0.37554  0.56956  1.0000
  O   O11       1.0  0.30143  0.62902  0.43133  1.0000
  O   O12       1.0  0.69857  0.37097  0.93133  1.0000
