data_image0
_chemical_formula_structural       Na4P2H26C12O20
_chemical_formula_sum              "Na4 P2 H26 C12 O20"
_cell_length_a       6.29571
_cell_length_b       8.57617
_cell_length_c       11.3768
_cell_angle_alpha    90.7039
_cell_angle_beta     89.3398
_cell_angle_gamma    94.4416

_space_group_name_H-M_alt    "P 1"
_space_group_IT_number       1

loop_
  _space_group_symop_operation_xyz
  'x, y, z'

loop_
  _atom_site_type_symbol
  _atom_site_label
  _atom_site_symmetry_multiplicity
  _atom_site_fract_x
  _atom_site_fract_y
  _atom_site_fract_z
  _atom_site_occupancy
  Na  Na1       1.0  0.85071  0.62870  0.14839  1.0000
  Na  Na2       1.0  0.14929  0.37130  0.85161  1.0000
  Na  Na3       1.0  0.80220  0.85693  0.39468  1.0000
  Na  Na4       1.0  0.19780  0.14307  0.60532  1.0000
  P   P1        1.0  0.34228  0.72372  0.22744  1.0000
  P   P2        1.0  0.65772  0.27628  0.77256  1.0000
  H   H1        1.0  0.27163  0.11072  0.09119  1.0000
  H   H2        1.0  0.72836  0.88928  0.90881  1.0000
  H   H3        1.0  0.62357  0.28810  0.15986  1.0000
  H   H4        1.0  0.37642  0.71190  0.84014  1.0000
  H   H5        1.0  0.69163  0.34262  0.02930  1.0000
  H   H6        1.0  0.30837  0.65738  0.97070  1.0000
  H   H7        1.0  0.99365  0.67673  0.91352  1.0000
  H   H8        1.0  0.00635  0.32327  0.08648  1.0000
  H   H9        1.0  0.79129  0.56028  0.91181  1.0000
  H   H10       1.0  0.20871  0.43972  0.08819  1.0000
  H   H11       1.0  0.25993  0.39346  0.27343  1.0000
  H   H12       1.0  0.74007  0.60654  0.72657  1.0000
  H   H13       1.0  0.49796  0.99996  0.10705  1.0000
  H   H14       1.0  0.50204  0.00004  0.89295  1.0000
  H   H15       1.0  0.27237  0.91718  0.02935  1.0000
  H   H16       1.0  0.72762  0.08282  0.97065  1.0000
  H   H17       1.0  0.48520  0.46415  0.35790  1.0000
  H   H18       1.0  0.51479  0.53585  0.64210  1.0000
  H   H19       1.0  0.94745  0.98429  0.17320  1.0000
  H   H20       1.0  0.05255  0.01571  0.82681  1.0000
  H   H21       1.0  0.51061  0.15334  0.40934  1.0000
  H   H22       1.0  0.48939  0.84665  0.59066  1.0000
  H   H23       1.0  0.24593  0.38766  0.42901  1.0000
  H   H24       1.0  0.75407  0.61235  0.57099  1.0000
  H   H25       1.0  0.93844  0.50921  0.38733  1.0000
  H   H26       1.0  0.06156  0.49078  0.61267  1.0000
  C   C1        1.0  0.22494  0.61847  0.35882  1.0000
  C   C2        1.0  0.77506  0.38153  0.64118  1.0000
  C   C3        1.0  0.28580  0.02269  0.32481  1.0000
  C   C4        1.0  0.71422  0.97732  0.67519  1.0000
  C   C5        1.0  0.23080  0.92151  0.21652  1.0000
  C   C6        1.0  0.76919  0.07850  0.78348  1.0000
  C   C7        1.0  0.28739  0.69351  0.47899  1.0000
  C   C8        1.0  0.71259  0.30649  0.52102  1.0000
  C   C9        1.0  0.32412  0.99267  0.10382  1.0000
  C   C10       1.0  0.67588  0.00733  0.89618  1.0000
  C   C11       1.0  0.31083  0.45586  0.35425  1.0000
  C   C12       1.0  0.68916  0.54414  0.64575  1.0000
  O   O1        1.0  0.00299  0.89241  0.20783  1.0000
  O   O2        1.0  0.99701  0.10759  0.79218  1.0000
  O   O3        1.0  0.58083  0.74795  0.23670  1.0000
  O   O4        1.0  0.41917  0.25206  0.76330  1.0000
  O   O5        1.0  0.45790  0.78653  0.48275  1.0000
  O   O6        1.0  0.54211  0.21347  0.51725  1.0000
  O   O7        1.0  0.25068  0.63356  0.12024  1.0000
  O   O8        1.0  0.74932  0.36644  0.87976  1.0000
  O   O9        1.0  0.47840  0.09318  0.32281  1.0000
  O   O10       1.0  0.52161  0.90682  0.67719  1.0000
  O   O11       1.0  0.99730  0.60772  0.34726  1.0000
  O   O12       1.0  0.00271  0.39227  0.65275  1.0000
  O   O13       1.0  0.15418  0.03227  0.40638  1.0000
  O   O14       1.0  0.84582  0.96774  0.59362  1.0000
  O   O15       1.0  0.17391  0.65781  0.56727  1.0000
  O   O16       1.0  0.82611  0.34218  0.43272  1.0000
  O   O17       1.0  0.72744  0.35308  0.11438  1.0000
  O   O18       1.0  0.27256  0.64692  0.88562  1.0000
  O   O19       1.0  0.84461  0.66531  0.94217  1.0000
  O   O20       1.0  0.15539  0.33469  0.05783  1.0000
