data_image0
_chemical_formula_structural       Na4P4H32C12O24
_chemical_formula_sum              "Na4 P4 H32 C12 O24"
_cell_length_a       6.01619
_cell_length_b       9.53465
_cell_length_c       12.4053
_cell_angle_alpha    90.0002
_cell_angle_beta     92.2828
_cell_angle_gamma    90.0001

_space_group_name_H-M_alt    "P 1"
_space_group_IT_number       1

loop_
  _space_group_symop_operation_xyz
  'x, y, z'

loop_
  _atom_site_type_symbol
  _atom_site_label
  _atom_site_symmetry_multiplicity
  _atom_site_fract_x
  _atom_site_fract_y
  _atom_site_fract_z
  _atom_site_occupancy
  Na  Na1       1.0  0.03008  0.98408  0.35717  1.0000
  Na  Na2       1.0  0.46992  0.48407  0.14283  1.0000
  Na  Na3       1.0  0.96992  0.01593  0.64283  1.0000
  Na  Na4       1.0  0.53009  0.51592  0.85717  1.0000
  P   P1        1.0  0.42561  0.72176  0.35554  1.0000
  P   P2        1.0  0.07439  0.22178  0.14444  1.0000
  P   P3        1.0  0.57439  0.27824  0.64447  1.0000
  P   P4        1.0  0.92561  0.77822  0.85556  1.0000
  H   H1        1.0  0.31827  0.62532  0.42322  1.0000
  H   H2        1.0  0.18172  0.12533  0.07678  1.0000
  H   H3        1.0  0.68173  0.37468  0.57678  1.0000
  H   H4        1.0  0.81828  0.87467  0.92322  1.0000
  H   H5        1.0  0.66834  0.46793  0.43076  1.0000
  H   H6        1.0  0.83166  0.96793  0.06924  1.0000
  H   H7        1.0  0.33165  0.53207  0.56924  1.0000
  H   H8        1.0  0.16834  0.03207  0.93076  1.0000
  H   H9        1.0  0.75168  0.48474  0.29592  1.0000
  H   H10       1.0  0.74832  0.98474  0.20408  1.0000
  H   H11       1.0  0.24832  0.51526  0.70408  1.0000
  H   H12       1.0  0.25168  0.01526  0.79592  1.0000
  H   H13       1.0  0.84916  0.70164  0.23455  1.0000
  H   H14       1.0  0.65083  0.20163  0.26545  1.0000
  H   H15       1.0  0.15084  0.29837  0.76546  1.0000
  H   H16       1.0  0.34917  0.79837  0.73455  1.0000
  H   H17       1.0  0.95137  0.50462  0.40283  1.0000
  H   H18       1.0  0.54863  0.00461  0.09717  1.0000
  H   H19       1.0  0.04863  0.49538  0.59718  1.0000
  H   H20       1.0  0.45136  0.99538  0.90283  1.0000
  H   H21       1.0  0.77599  0.72742  0.64490  1.0000
  H   H22       1.0  0.72402  0.22741  0.85511  1.0000
  H   H23       1.0  0.22402  0.27259  0.35511  1.0000
  H   H24       1.0  0.27599  0.77258  0.14489  1.0000
  H   H25       1.0  0.54499  0.01266  0.37400  1.0000
  H   H26       1.0  0.95500  0.51266  0.12600  1.0000
  H   H27       1.0  0.45500  0.98734  0.62600  1.0000
  H   H28       1.0  0.04500  0.48734  0.87400  1.0000
  H   H29       1.0  0.66245  0.12102  0.45080  1.0000
  H   H30       1.0  0.83755  0.62102  0.04920  1.0000
  H   H31       1.0  0.33755  0.87898  0.54920  1.0000
  H   H32       1.0  0.16245  0.37898  0.95080  1.0000
  C   C1        1.0  0.79699  0.74491  0.49140  1.0000
  C   C2        1.0  0.70301  0.24491  0.00860  1.0000
  C   C3        1.0  0.20300  0.25510  0.50860  1.0000
  C   C4        1.0  0.29700  0.75509  0.99140  1.0000
  C   C5        1.0  0.73150  0.68314  0.38142  1.0000
  C   C6        1.0  0.76850  0.18313  0.11858  1.0000
  C   C7        1.0  0.26850  0.31686  0.61858  1.0000
  C   C8        1.0  0.23151  0.81686  0.88142  1.0000
  C   C9        1.0  0.77746  0.52574  0.37786  1.0000
  C   C10       1.0  0.72254  0.02573  0.12214  1.0000
  C   C11       1.0  0.22254  0.47427  0.62214  1.0000
  C   C12       1.0  0.27746  0.97426  0.87786  1.0000
  O   O1        1.0  0.36777  0.68357  0.23891  1.0000
  O   O2        1.0  0.13223  0.18356  0.26111  1.0000
  O   O3        1.0  0.63223  0.31643  0.76110  1.0000
  O   O4        1.0  0.86778  0.81644  0.73889  1.0000
  O   O5        1.0  0.37548  0.87007  0.39326  1.0000
  O   O6        1.0  0.12450  0.37006  0.10674  1.0000
  O   O7        1.0  0.62451  0.12992  0.60673  1.0000
  O   O8        1.0  0.87550  0.62994  0.89326  1.0000
  O   O9        1.0  0.84895  0.75885  0.30249  1.0000
  O   O10       1.0  0.65104  0.25885  0.19751  1.0000
  O   O11       1.0  0.15105  0.24115  0.69751  1.0000
  O   O12       1.0  0.34896  0.74115  0.80248  1.0000
  O   O13       1.0  0.72350  0.67413  0.57494  1.0000
  O   O14       1.0  0.77651  0.17412  0.92506  1.0000
  O   O15       1.0  0.27651  0.32587  0.42506  1.0000
  O   O16       1.0  0.22350  0.82587  0.07494  1.0000
  O   O17       1.0  0.90569  0.85412  0.50070  1.0000
  O   O18       1.0  0.59430  0.35411  0.99930  1.0000
  O   O19       1.0  0.09430  0.14589  0.49930  1.0000
  O   O20       1.0  0.40571  0.64588  0.00069  1.0000
  O   O21       1.0  0.65309  0.09194  0.37453  1.0000
  O   O22       1.0  0.84690  0.59194  0.12548  1.0000
  O   O23       1.0  0.34691  0.90806  0.62547  1.0000
  O   O24       1.0  0.15310  0.40806  0.87452  1.0000
