data_image0
_chemical_formula_structural       Cu4H36C36I4N12
_chemical_formula_sum              "Cu4 H36 C36 I4 N12"
_cell_length_a       10.1049
_cell_length_b       10.4697
_cell_length_c       11.7085
_cell_angle_alpha    77.2659
_cell_angle_beta     73.5606
_cell_angle_gamma    89.1283

_space_group_name_H-M_alt    "P 1"
_space_group_IT_number       1

loop_
  _space_group_symop_operation_xyz
  'x, y, z'

loop_
  _atom_site_type_symbol
  _atom_site_label
  _atom_site_symmetry_multiplicity
  _atom_site_fract_x
  _atom_site_fract_y
  _atom_site_fract_z
  _atom_site_occupancy
  Cu  Cu1       1.0  0.19455  0.65352  0.63912  1.0000
  Cu  Cu2       1.0  0.80545  0.34648  0.36089  1.0000
  Cu  Cu3       1.0  0.34040  0.81093  0.43202  1.0000
  Cu  Cu4       1.0  0.65960  0.18907  0.56798  1.0000
  H   H1        1.0  0.92463  0.24532  0.13034  1.0000
  H   H2        1.0  0.07536  0.75468  0.86967  1.0000
  H   H3        1.0  0.04734  0.52454  0.28738  1.0000
  H   H4        1.0  0.95266  0.47546  0.71262  1.0000
  H   H5        1.0  0.12330  0.32531  0.93847  1.0000
  H   H6        1.0  0.87669  0.67469  0.06153  1.0000
  H   H7        1.0  0.82879  0.95777  0.53635  1.0000
  H   H8        1.0  0.17121  0.04224  0.46365  1.0000
  H   H9        1.0  0.49919  0.03408  0.81461  1.0000
  H   H10       1.0  0.50080  0.96591  0.18539  1.0000
  H   H11       1.0  0.82888  0.72842  0.65846  1.0000
  H   H12       1.0  0.17114  0.27159  0.34154  1.0000
  H   H13       1.0  0.63976  0.49407  0.20773  1.0000
  H   H14       1.0  0.36023  0.50593  0.79227  1.0000
  H   H15       1.0  0.74324  0.54768  0.51332  1.0000
  H   H16       1.0  0.25676  0.45232  0.48668  1.0000
  H   H17       1.0  0.56788  0.72295  0.53754  1.0000
  H   H18       1.0  0.43211  0.27705  0.46246  1.0000
  H   H19       1.0  0.21383  0.70974  0.13366  1.0000
  H   H20       1.0  0.78618  0.29025  0.86634  1.0000
  H   H21       1.0  0.43550  0.60448  0.94233  1.0000
  H   H22       1.0  0.56450  0.39552  0.05766  1.0000
  H   H23       1.0  0.31738  0.72142  0.90745  1.0000
  H   H24       1.0  0.68262  0.27857  0.09255  1.0000
  H   H25       1.0  0.41368  0.87695  0.99877  1.0000
  H   H26       1.0  0.58632  0.12304  0.00123  1.0000
  H   H27       1.0  0.28378  0.54267  0.28516  1.0000
  H   H28       1.0  0.71622  0.45733  0.71484  1.0000
  H   H29       1.0  0.41494  0.49407  0.16837  1.0000
  H   H30       1.0  0.58506  0.50592  0.83163  1.0000
  H   H31       1.0  0.38478  0.76519  0.22919  1.0000
  H   H32       1.0  0.61522  0.23481  0.77080  1.0000
  H   H33       1.0  0.61824  0.82465  0.07507  1.0000
  H   H34       1.0  0.38176  0.17534  0.92492  1.0000
  H   H35       1.0  0.62018  0.66803  0.04136  1.0000
  H   H36       1.0  0.37982  0.33196  0.95864  1.0000
  C   C1        1.0  0.99706  0.32582  0.12110  1.0000
  C   C2        1.0  0.00294  0.67418  0.87890  1.0000
  C   C3        1.0  0.06441  0.48028  0.20833  1.0000
  C   C4        1.0  0.93559  0.51972  0.79167  1.0000
  C   C5        1.0  0.10620  0.37044  0.01691  1.0000
  C   C6        1.0  0.89380  0.62956  0.98310  1.0000
  C   C7        1.0  0.17543  0.52354  0.10331  1.0000
  C   C8        1.0  0.82456  0.47646  0.89669  1.0000
  C   C9        1.0  0.75580  0.92343  0.62656  1.0000
  C   C10       1.0  0.24421  0.07657  0.37345  1.0000
  C   C11       1.0  0.57470  0.96577  0.78075  1.0000
  C   C12       1.0  0.42530  0.03423  0.21924  1.0000
  C   C13       1.0  0.75446  0.79647  0.69527  1.0000
  C   C14       1.0  0.24554  0.20354  0.30473  1.0000
  C   C15       1.0  0.57544  0.83894  0.85039  1.0000
  C   C16       1.0  0.42455  0.16106  0.14961  1.0000
  C   C17       1.0  0.62275  0.54525  0.28203  1.0000
  C   C18       1.0  0.37725  0.45475  0.71797  1.0000
  C   C19       1.0  0.67979  0.57496  0.45106  1.0000
  C   C20       1.0  0.32021  0.42504  0.54894  1.0000
  C   C21       1.0  0.58512  0.67158  0.46334  1.0000
  C   C22       1.0  0.41488  0.32842  0.53666  1.0000
  C   C23       1.0  0.52929  0.64471  0.29158  1.0000
  C   C24       1.0  0.47071  0.35528  0.70841  1.0000
  C   C25       1.0  0.27566  0.62990  0.10108  1.0000
  C   C26       1.0  0.72434  0.37009  0.89892  1.0000
  C   C27       1.0  0.37426  0.68417  0.97431  1.0000
  C   C28       1.0  0.62574  0.31583  0.02568  1.0000
  C   C29       1.0  0.47420  0.79279  0.97545  1.0000
  C   C30       1.0  0.52580  0.20721  0.02455  1.0000
  C   C31       1.0  0.35644  0.57796  0.19389  1.0000
  C   C32       1.0  0.64356  0.42204  0.80610  1.0000
  C   C33       1.0  0.45203  0.68787  0.19834  1.0000
  C   C34       1.0  0.54796  0.31213  0.80166  1.0000
  C   C35       1.0  0.55161  0.74426  0.07119  1.0000
  C   C36       1.0  0.44839  0.25573  0.92881  1.0000
  I   I1        1.0  0.09429  0.70476  0.44533  1.0000
  I   I2        1.0  0.90571  0.29524  0.55467  1.0000
  I   I3        1.0  0.32345  0.86298  0.65142  1.0000
  I   I4        1.0  0.67655  0.13702  0.34859  1.0000
  N   N1        1.0  0.97490  0.38246  0.21734  1.0000
  N   N2        1.0  0.02510  0.61754  0.78266  1.0000
  N   N3        1.0  0.19489  0.46937  0.00642  1.0000
  N   N4        1.0  0.80510  0.53063  0.99358  1.0000
  N   N5        1.0  0.66468  0.00888  0.66959  1.0000
  N   N6        1.0  0.33533  0.99112  0.33041  1.0000
  N   N7        1.0  0.66582  0.75352  0.80667  1.0000
  N   N8        1.0  0.33418  0.24648  0.19333  1.0000
  N   N9        1.0  0.69579  0.50667  0.36286  1.0000
  N   N10       1.0  0.30421  0.49333  0.63714  1.0000
  N   N11       1.0  0.50529  0.70467  0.38692  1.0000
  N   N12       1.0  0.49471  0.29533  0.61308  1.0000
