data_image0
_chemical_formula_structural       Cd2Cu2H18C12N8O6
_chemical_formula_sum              "Cd2 Cu2 H18 C12 N8 O6"
_cell_length_a       7.60435
_cell_length_b       8.56577
_cell_length_c       9.26931
_cell_angle_alpha    74.3367
_cell_angle_beta     76.4569
_cell_angle_gamma    67.8198

_space_group_name_H-M_alt    "P 1"
_space_group_IT_number       1

loop_
  _space_group_symop_operation_xyz
  'x, y, z'

loop_
  _atom_site_type_symbol
  _atom_site_label
  _atom_site_symmetry_multiplicity
  _atom_site_fract_x
  _atom_site_fract_y
  _atom_site_fract_z
  _atom_site_occupancy
  Cd  Cd1       1.0  0.30900  0.25316  0.14990  1.0000
  Cd  Cd2       1.0  0.69100  0.74684  0.85010  1.0000
  Cu  Cu1       1.0  0.35311  0.63344  0.47812  1.0000
  Cu  Cu2       1.0  0.64688  0.36656  0.52188  1.0000
  H   H1        1.0  0.15390  0.32855  0.58674  1.0000
  H   H2        1.0  0.84610  0.67146  0.41326  1.0000
  H   H3        1.0  0.93674  0.31060  0.70340  1.0000
  H   H4        1.0  0.06326  0.68941  0.29659  1.0000
  H   H5        1.0  0.08081  0.06534  0.57665  1.0000
  H   H6        1.0  0.91919  0.93466  0.42336  1.0000
  H   H7        1.0  0.30996  0.01376  0.63101  1.0000
  H   H8        1.0  0.69003  0.98625  0.36899  1.0000
  H   H9        1.0  0.06267  0.87335  0.78537  1.0000
  H   H10       1.0  0.93732  0.12665  0.21463  1.0000
  H   H11       1.0  0.20216  0.56647  0.91555  1.0000
  H   H12       1.0  0.79784  0.43353  0.08445  1.0000
  H   H13       1.0  0.30656  0.62216  0.01316  1.0000
  H   H14       1.0  0.69344  0.37785  0.98684  1.0000
  H   H15       1.0  0.65062  0.14150  0.92529  1.0000
  H   H16       1.0  0.34938  0.85850  0.07470  1.0000
  H   H17       1.0  0.73839  0.11900  0.07461  1.0000
  H   H18       1.0  0.26161  0.88100  0.92539  1.0000
  C   C1        1.0  0.42124  0.42850  0.38908  1.0000
  C   C2        1.0  0.57877  0.57149  0.61092  1.0000
  C   C3        1.0  0.16352  0.25255  0.81886  1.0000
  C   C4        1.0  0.83648  0.74745  0.18115  1.0000
  C   C5        1.0  0.09424  0.25073  0.68704  1.0000
  C   C6        1.0  0.90576  0.74927  0.31296  1.0000
  C   C7        1.0  0.15368  0.06544  0.66578  1.0000
  C   C8        1.0  0.84632  0.93456  0.33422  1.0000
  C   C9        1.0  0.86087  0.34017  0.36410  1.0000
  C   C10       1.0  0.13913  0.65983  0.63591  1.0000
  C   C11       1.0  0.36160  0.83854  0.33507  1.0000
  C   C12       1.0  0.63839  0.16145  0.66493  1.0000
  N   N1        1.0  0.22183  0.24273  0.92711  1.0000
  N   N2        1.0  0.77816  0.75727  0.07288  1.0000
  N   N3        1.0  0.39649  0.34648  0.31691  1.0000
  N   N4        1.0  0.60352  0.65351  0.68309  1.0000
  N   N5        1.0  0.35887  0.96811  0.24835  1.0000
  N   N6        1.0  0.64112  0.03189  0.75165  1.0000
  N   N7        1.0  0.98636  0.31194  0.26178  1.0000
  N   N8        1.0  0.01366  0.68805  0.73822  1.0000
  O   O1        1.0  0.63294  0.19314  0.01268  1.0000
  O   O2        1.0  0.36706  0.80687  0.98732  1.0000
  O   O3        1.0  0.24527  0.53815  0.01375  1.0000
  O   O4        1.0  0.75473  0.46185  0.98625  1.0000
  O   O5        1.0  0.09685  0.96399  0.80723  1.0000
  O   O6        1.0  0.90315  0.03602  0.19277  1.0000
