data_image0
_chemical_formula_structural       Cu4H32C38N16O8
_chemical_formula_sum              "Cu4 H32 C38 N16 O8"
_cell_length_a       9.75411
_cell_length_b       10.9639
_cell_length_c       12.1953
_cell_angle_alpha    66.7339
_cell_angle_beta     78.5447
_cell_angle_gamma    64.341

_space_group_name_H-M_alt    "P 1"
_space_group_IT_number       1

loop_
  _space_group_symop_operation_xyz
  'x, y, z'

loop_
  _atom_site_type_symbol
  _atom_site_label
  _atom_site_symmetry_multiplicity
  _atom_site_fract_x
  _atom_site_fract_y
  _atom_site_fract_z
  _atom_site_occupancy
  Cu  Cu1       1.0  0.36085  0.14233  0.50349  1.0000
  Cu  Cu2       1.0  0.63915  0.85767  0.49651  1.0000
  Cu  Cu3       1.0  0.31742  0.39109  0.61007  1.0000
  Cu  Cu4       1.0  0.68258  0.60891  0.38993  1.0000
  H   H1        1.0  0.04669  0.88888  0.27347  1.0000
  H   H2        1.0  0.95331  0.11112  0.72653  1.0000
  H   H3        1.0  0.14925  0.72162  0.38166  1.0000
  H   H4        1.0  0.85075  0.27838  0.61835  1.0000
  H   H5        1.0  0.00897  0.91252  0.08133  1.0000
  H   H6        1.0  0.99103  0.08748  0.91867  1.0000
  H   H7        1.0  0.09012  0.82012  0.91204  1.0000
  H   H8        1.0  0.90988  0.17988  0.08796  1.0000
  H   H9        1.0  0.25639  0.56044  0.95017  1.0000
  H   H10       1.0  0.74361  0.43956  0.04983  1.0000
  H   H11       1.0  0.33728  0.39653  0.15685  1.0000
  H   H12       1.0  0.66272  0.60348  0.84315  1.0000
  H   H13       1.0  0.36410  0.66098  0.53814  1.0000
  H   H14       1.0  0.63590  0.33902  0.46186  1.0000
  H   H15       1.0  0.21997  0.90570  0.55411  1.0000
  H   H16       1.0  0.78003  0.09430  0.44587  1.0000
  H   H17       1.0  0.95986  0.96096  0.65439  1.0000
  H   H18       1.0  0.04014  0.03905  0.34560  1.0000
  H   H19       1.0  0.85581  0.76873  0.73542  1.0000
  H   H20       1.0  0.14419  0.23127  0.26458  1.0000
  H   H21       1.0  0.01365  0.52894  0.71080  1.0000
  H   H22       1.0  0.98635  0.47106  0.28920  1.0000
  H   H23       1.0  0.24159  0.11185  0.04925  1.0000
  H   H24       1.0  0.75841  0.88815  0.95075  1.0000
  H   H25       1.0  0.18842  0.22676  0.82941  1.0000
  H   H26       1.0  0.81158  0.77324  0.17059  1.0000
  H   H27       1.0  0.52383  0.38704  0.75614  1.0000
  H   H28       1.0  0.47617  0.61296  0.24386  1.0000
  H   H29       1.0  0.58657  0.28421  0.97235  1.0000
  H   H30       1.0  0.41343  0.71579  0.02765  1.0000
  H   H31       1.0  0.44346  0.14145  0.12124  1.0000
  H   H32       1.0  0.55654  0.85855  0.87876  1.0000
  C   C1        1.0  0.91934  0.75783  0.36848  1.0000
  C   C2        1.0  0.08067  0.24216  0.63151  1.0000
  C   C3        1.0  0.06819  0.77365  0.31017  1.0000
  C   C4        1.0  0.93181  0.22635  0.68983  1.0000
  C   C5        1.0  0.12953  0.70934  0.21360  1.0000
  C   C6        1.0  0.87047  0.29066  0.78640  1.0000
  C   C7        1.0  0.08271  0.79919  0.09675  1.0000
  C   C8        1.0  0.91729  0.20081  0.90325  1.0000
  C   C9        1.0  0.12605  0.74752  0.00233  1.0000
  C   C10       1.0  0.87395  0.25248  0.99767  1.0000
  C   C11       1.0  0.21890  0.60187  0.02351  1.0000
  C   C12       1.0  0.78110  0.39813  0.97649  1.0000
  C   C13       1.0  0.26510  0.51033  0.13896  1.0000
  C   C14       1.0  0.73490  0.48966  0.86104  1.0000
  C   C15       1.0  0.22172  0.56197  0.23465  1.0000
  C   C16       1.0  0.77828  0.43803  0.76535  1.0000
  C   C17       1.0  0.27234  0.45323  0.35713  1.0000
  C   C18       1.0  0.72766  0.54677  0.64288  1.0000
  C   C19       1.0  0.25123  0.68897  0.58146  1.0000
  C   C20       1.0  0.74877  0.31103  0.41853  1.0000
  C   C21       1.0  0.17091  0.82480  0.59077  1.0000
  C   C22       1.0  0.82909  0.17520  0.40922  1.0000
  C   C23       1.0  0.02709  0.85497  0.64720  1.0000
  C   C24       1.0  0.97291  0.14504  0.35279  1.0000
  C   C25       1.0  0.96866  0.74831  0.69276  1.0000
  C   C26       1.0  0.03134  0.25169  0.30724  1.0000
  C   C27       1.0  0.05506  0.61500  0.67969  1.0000
  C   C28       1.0  0.94494  0.38500  0.32031  1.0000
  C   C29       1.0  0.30551  0.17283  0.98686  1.0000
  C   C30       1.0  0.69449  0.82717  0.01315  1.0000
  C   C31       1.0  0.27639  0.23463  0.86566  1.0000
  C   C32       1.0  0.72361  0.76537  0.13434  1.0000
  C   C33       1.0  0.46363  0.32608  0.82434  1.0000
  C   C34       1.0  0.53637  0.67392  0.17566  1.0000
  C   C35       1.0  0.49834  0.26811  0.94435  1.0000
  C   C36       1.0  0.50166  0.73189  0.05565  1.0000
  C   C37       1.0  0.41836  0.18966  0.02679  1.0000
  C   C38       1.0  0.58164  0.81034  0.97321  1.0000
  N   N1        1.0  0.35460  0.30937  0.78621  1.0000
  N   N2        1.0  0.64540  0.69063  0.21380  1.0000
  N   N3        1.0  0.19337  0.58670  0.62450  1.0000
  N   N4        1.0  0.80662  0.41330  0.37550  1.0000
  N   N5        1.0  0.67570  0.04204  0.72790  1.0000
  N   N6        1.0  0.32430  0.95795  0.27210  1.0000
  N   N7        1.0  0.57944  0.12799  0.66131  1.0000
  N   N8        1.0  0.42056  0.87201  0.33869  1.0000
  N   N9        1.0  0.48297  0.21482  0.58894  1.0000
  N   N10       1.0  0.51703  0.78518  0.41107  1.0000
  N   N11       1.0  0.53486  0.06704  0.39428  1.0000
  N   N12       1.0  0.46514  0.93296  0.60572  1.0000
  N   N13       1.0  0.58112  0.13416  0.30072  1.0000
  N   N14       1.0  0.41888  0.86584  0.69928  1.0000
  N   N15       1.0  0.62469  0.19897  0.21070  1.0000
  N   N16       1.0  0.37531  0.80103  0.78930  1.0000
  O   O1        1.0  0.83283  0.85554  0.41314  1.0000
  O   O2        1.0  0.16717  0.14446  0.58686  1.0000
  O   O3        1.0  0.89239  0.65580  0.36850  1.0000
  O   O4        1.0  0.10762  0.34420  0.63150  1.0000
  O   O5        1.0  0.30838  0.49148  0.42969  1.0000
  O   O6        1.0  0.69162  0.50852  0.57031  1.0000
  O   O7        1.0  0.27533  0.32926  0.37552  1.0000
  O   O8        1.0  0.72467  0.67074  0.62448  1.0000
