data_image0
_chemical_formula_structural       Cu4H28C28I4N4O8
_chemical_formula_sum              "Cu4 H28 C28 I4 N4 O8"
_cell_length_a       4.03671
_cell_length_b       9.17881
_cell_length_c       24.0411
_cell_angle_alpha    90.0009
_cell_angle_beta     89.9988
_cell_angle_gamma    96.2245

_space_group_name_H-M_alt    "P 1"
_space_group_IT_number       1

loop_
  _space_group_symop_operation_xyz
  'x, y, z'

loop_
  _atom_site_type_symbol
  _atom_site_label
  _atom_site_symmetry_multiplicity
  _atom_site_fract_x
  _atom_site_fract_y
  _atom_site_fract_z
  _atom_site_occupancy
  Cu  Cu1       1.0  0.76363  0.54148  0.96827  1.0000
  Cu  Cu2       1.0  0.23639  0.95853  0.46827  1.0000
  Cu  Cu3       1.0  0.23635  0.45851  0.03173  1.0000
  Cu  Cu4       1.0  0.76366  0.04149  0.53173  1.0000
  H   H1        1.0  0.35221  0.28047  0.79028  1.0000
  H   H2        1.0  0.64775  0.21954  0.29028  1.0000
  H   H3        1.0  0.64778  0.71954  0.20971  1.0000
  H   H4        1.0  0.35222  0.78047  0.70972  1.0000
  H   H5        1.0  0.41783  0.32000  0.89305  1.0000
  H   H6        1.0  0.58215  0.18001  0.39304  1.0000
  H   H7        1.0  0.58216  0.67999  0.10695  1.0000
  H   H8        1.0  0.41784  0.82000  0.60695  1.0000
  H   H9        1.0  0.07883  0.69227  0.86933  1.0000
  H   H10       1.0  0.92116  0.80773  0.36934  1.0000
  H   H11       1.0  0.92114  0.30772  0.13067  1.0000
  H   H12       1.0  0.07882  0.19228  0.63067  1.0000
  H   H13       1.0  0.03598  0.67194  0.76719  1.0000
  H   H14       1.0  0.96397  0.82806  0.26720  1.0000
  H   H15       1.0  0.96403  0.32806  0.23282  1.0000
  H   H16       1.0  0.03595  0.17195  0.73281  1.0000
  H   H17       1.0  0.93201  0.43159  0.60693  1.0000
  H   H18       1.0  0.06803  0.06840  0.10694  1.0000
  H   H19       1.0  0.06807  0.56843  0.39306  1.0000
  H   H20       1.0  0.93196  0.93157  0.89306  1.0000
  H   H21       1.0  0.97405  0.62861  0.60149  1.0000
  H   H22       1.0  0.02598  0.87137  0.10149  1.0000
  H   H23       1.0  0.02603  0.37140  0.39851  1.0000
  H   H24       1.0  0.97399  0.12860  0.89852  1.0000
  H   H25       1.0  0.56905  0.52699  0.60477  1.0000
  H   H26       1.0  0.43099  0.97300  0.10478  1.0000
  H   H27       1.0  0.43105  0.47303  0.39522  1.0000
  H   H28       1.0  0.56899  0.02697  0.89523  1.0000
  C   C1        1.0  0.64514  0.45276  0.70874  1.0000
  C   C2        1.0  0.35483  0.04722  0.20874  1.0000
  C   C3        1.0  0.35489  0.54725  0.29126  1.0000
  C   C4        1.0  0.64515  0.95276  0.79126  1.0000
  C   C5        1.0  0.68792  0.47379  0.76983  1.0000
  C   C6        1.0  0.31204  0.02621  0.26983  1.0000
  C   C7        1.0  0.31210  0.52623  0.23017  1.0000
  C   C8        1.0  0.68791  0.97379  0.73017  1.0000
  C   C9        1.0  0.51453  0.37336  0.80622  1.0000
  C   C10       1.0  0.48542  0.12664  0.30622  1.0000
  C   C11       1.0  0.48546  0.62664  0.19378  1.0000
  C   C12       1.0  0.51454  0.87336  0.69378  1.0000
  C   C13       1.0  0.54988  0.39449  0.86312  1.0000
  C   C14       1.0  0.45011  0.10552  0.36312  1.0000
  C   C15       1.0  0.45011  0.60550  0.13688  1.0000
  C   C16       1.0  0.54988  0.89449  0.63689  1.0000
  C   C17       1.0  0.91641  0.60355  0.85032  1.0000
  C   C18       1.0  0.08358  0.89646  0.35033  1.0000
  C   C19       1.0  0.08357  0.39644  0.14968  1.0000
  C   C20       1.0  0.91640  0.10355  0.64968  1.0000
  C   C21       1.0  0.89314  0.59063  0.79287  1.0000
  C   C22       1.0  0.10683  0.90938  0.29287  1.0000
  C   C23       1.0  0.10686  0.40938  0.20713  1.0000
  C   C24       1.0  0.89313  0.09063  0.70713  1.0000
  C   C25       1.0  0.82765  0.53241  0.61909  1.0000
  C   C26       1.0  0.17238  0.96757  0.11909  1.0000
  C   C27       1.0  0.17243  0.46760  0.38091  1.0000
  C   C28       1.0  0.82760  0.03240  0.88091  1.0000
  I   I1        1.0  0.30895  0.72453  0.98848  1.0000
  I   I2        1.0  0.69105  0.77547  0.48848  1.0000
  I   I3        1.0  0.69103  0.27546  0.01152  1.0000
  I   I4        1.0  0.30899  0.22455  0.51152  1.0000
  N   N1        1.0  0.74733  0.50793  0.88531  1.0000
  N   N2        1.0  0.25267  0.99209  0.38532  1.0000
  N   N3        1.0  0.25265  0.49206  0.11468  1.0000
  N   N4        1.0  0.74733  0.00792  0.61468  1.0000
  O   O1        1.0  0.44819  0.35723  0.68782  1.0000
  O   O2        1.0  0.55175  0.14275  0.18782  1.0000
  O   O3        1.0  0.55182  0.64278  0.31218  1.0000
  O   O4        1.0  0.44819  0.85721  0.81218  1.0000
  O   O5        1.0  0.84645  0.55082  0.67896  1.0000
  O   O6        1.0  0.15356  0.94917  0.17896  1.0000
  O   O7        1.0  0.15360  0.44918  0.32104  1.0000
  O   O8        1.0  0.84644  0.05082  0.82104  1.0000
