data_image0
_chemical_formula_structural       Cu4H20C24I4N4O8
_chemical_formula_sum              "Cu4 H20 C24 I4 N4 O8"
_cell_length_a       4.01962
_cell_length_b       13.9954
_cell_length_c       14.4187
_cell_angle_alpha    105.425
_cell_angle_beta     90
_cell_angle_gamma    90

_space_group_name_H-M_alt    "P 1"
_space_group_IT_number       1

loop_
  _space_group_symop_operation_xyz
  'x, y, z'

loop_
  _atom_site_type_symbol
  _atom_site_label
  _atom_site_symmetry_multiplicity
  _atom_site_fract_x
  _atom_site_fract_y
  _atom_site_fract_z
  _atom_site_occupancy
  Cu  Cu1       1.0  0.33811  0.73195  0.43470  1.0000
  Cu  Cu2       1.0  0.83810  0.76804  0.56529  1.0000
  Cu  Cu3       1.0  0.66188  0.26806  0.56530  1.0000
  Cu  Cu4       1.0  0.16187  0.23195  0.43471  1.0000
  H   H1        1.0  0.66039  0.74223  0.09413  1.0000
  H   H2        1.0  0.16039  0.75777  0.90585  1.0000
  H   H3        1.0  0.33960  0.25778  0.90587  1.0000
  H   H4        1.0  0.83964  0.24222  0.09414  1.0000
  H   H5        1.0  0.60636  0.66802  0.23342  1.0000
  H   H6        1.0  0.10636  0.83198  0.76656  1.0000
  H   H7        1.0  0.39363  0.33199  0.76658  1.0000
  H   H8        1.0  0.89363  0.16801  0.23343  1.0000
  H   H9        1.0  0.06291  0.90866  0.39109  1.0000
  H   H10       1.0  0.56295  0.59132  0.60891  1.0000
  H   H11       1.0  0.93709  0.09135  0.60892  1.0000
  H   H12       1.0  0.43705  0.40866  0.39110  1.0000
  H   H13       1.0  0.09528  0.99309  0.25929  1.0000
  H   H14       1.0  0.59531  0.50690  0.74071  1.0000
  H   H15       1.0  0.90471  0.00692  0.74072  1.0000
  H   H16       1.0  0.40472  0.49308  0.25929  1.0000
  H   H17       1.0  0.63007  0.92516  0.96847  1.0000
  H   H18       1.0  0.13012  0.57485  0.03152  1.0000
  H   H19       1.0  0.36992  0.07486  0.03153  1.0000
  H   H20       1.0  0.86992  0.42514  0.96848  1.0000
  C   C1        1.0  0.42383  0.92807  0.09112  1.0000
  C   C2        1.0  0.92386  0.57194  0.90887  1.0000
  C   C3        1.0  0.57614  0.07194  0.90888  1.0000
  C   C4        1.0  0.07616  0.42804  0.09113  1.0000
  C   C5        1.0  0.38281  0.87449  0.16626  1.0000
  C   C6        1.0  0.88281  0.62550  0.83373  1.0000
  C   C7        1.0  0.61717  0.12552  0.83374  1.0000
  C   C8        1.0  0.11719  0.37448  0.16627  1.0000
  C   C9        1.0  0.52387  0.78099  0.15830  1.0000
  C   C10       1.0  0.02387  0.71902  0.84168  1.0000
  C   C11       1.0  0.47612  0.21903  0.84170  1.0000
  C   C12       1.0  0.97617  0.28098  0.15832  1.0000
  C   C13       1.0  0.49454  0.73955  0.23539  1.0000
  C   C14       1.0  0.99455  0.76044  0.76460  1.0000
  C   C15       1.0  0.50546  0.26047  0.76461  1.0000
  C   C16       1.0  0.00545  0.23954  0.23540  1.0000
  C   C17       1.0  0.19097  0.87392  0.32382  1.0000
  C   C18       1.0  0.69097  0.62606  0.67617  1.0000
  C   C19       1.0  0.80904  0.12609  0.67618  1.0000
  C   C20       1.0  0.30902  0.37392  0.32382  1.0000
  C   C21       1.0  0.20980  0.92072  0.25033  1.0000
  C   C22       1.0  0.70984  0.57928  0.74966  1.0000
  C   C23       1.0  0.79018  0.07929  0.74968  1.0000
  C   C24       1.0  0.29021  0.42071  0.25034  1.0000
  I   I1        1.0  0.83869  0.60748  0.42005  1.0000
  I   I2        1.0  0.33869  0.89251  0.57994  1.0000
  I   I3        1.0  0.16131  0.39252  0.57994  1.0000
  I   I4        1.0  0.66129  0.10749  0.42007  1.0000
  N   N1        1.0  0.33579  0.78557  0.31790  1.0000
  N   N2        1.0  0.83579  0.71442  0.68209  1.0000
  N   N3        1.0  0.66421  0.21445  0.68210  1.0000
  N   N4        1.0  0.16420  0.28557  0.31791  1.0000
  O   O1        1.0  0.59642  0.88038  0.01482  1.0000
  O   O2        1.0  0.09646  0.61961  0.98517  1.0000
  O   O3        1.0  0.40357  0.11963  0.98518  1.0000
  O   O4        1.0  0.90357  0.38038  0.01483  1.0000
  O   O5        1.0  0.30554  0.01294  0.10206  1.0000
  O   O6        1.0  0.80554  0.48705  0.89795  1.0000
  O   O7        1.0  0.69441  0.98706  0.89794  1.0000
  O   O8        1.0  0.19450  0.51295  0.10206  1.0000
