data_image0
_chemical_formula_structural       Sb4H28C32S8I12N4
_chemical_formula_sum              "Sb4 H28 C32 S8 I12 N4"
_cell_length_a       8.10232
_cell_length_b       12.9383
_cell_length_c       13.9275
_cell_angle_alpha    89.9999
_cell_angle_beta     90.0006
_cell_angle_gamma    93.9261

_space_group_name_H-M_alt    "P 1"
_space_group_IT_number       1

loop_
  _space_group_symop_operation_xyz
  'x, y, z'

loop_
  _atom_site_type_symbol
  _atom_site_label
  _atom_site_symmetry_multiplicity
  _atom_site_fract_x
  _atom_site_fract_y
  _atom_site_fract_z
  _atom_site_occupancy
  Sb  Sb1       1.0  0.75311  0.30716  0.67835  1.0000
  Sb  Sb2       1.0  0.74689  0.69284  0.17835  1.0000
  Sb  Sb3       1.0  0.24689  0.69284  0.32165  1.0000
  Sb  Sb4       1.0  0.25311  0.30716  0.82165  1.0000
  H   H1        1.0  0.73752  0.98940  0.23086  1.0000
  H   H2        1.0  0.76247  0.01061  0.73086  1.0000
  H   H3        1.0  0.26247  0.01060  0.76914  1.0000
  H   H4        1.0  0.23752  0.98940  0.26912  1.0000
  H   H5        1.0  0.84996  0.07679  0.08264  1.0000
  H   H6        1.0  0.65004  0.92322  0.58264  1.0000
  H   H7        1.0  0.15004  0.92321  0.91737  1.0000
  H   H8        1.0  0.34995  0.07677  0.41736  1.0000
  H   H9        1.0  0.03652  0.23567  0.09294  1.0000
  H   H10       1.0  0.46349  0.76433  0.59293  1.0000
  H   H11       1.0  0.96349  0.76433  0.90707  1.0000
  H   H12       1.0  0.53651  0.23566  0.40707  1.0000
  H   H13       1.0  0.12321  0.31038  0.25084  1.0000
  H   H14       1.0  0.37680  0.68963  0.75083  1.0000
  H   H15       1.0  0.87681  0.68962  0.74917  1.0000
  H   H16       1.0  0.62319  0.31038  0.24918  1.0000
  H   H17       1.0  0.14357  0.31073  0.52689  1.0000
  H   H18       1.0  0.35643  0.68927  0.02688  1.0000
  H   H19       1.0  0.85643  0.68927  0.47311  1.0000
  H   H20       1.0  0.64357  0.31073  0.97311  1.0000
  H   H21       1.0  0.07941  0.37926  0.42330  1.0000
  H   H22       1.0  0.42060  0.62074  0.92329  1.0000
  H   H23       1.0  0.92059  0.62074  0.57670  1.0000
  H   H24       1.0  0.57942  0.37926  0.07670  1.0000
  H   H25       1.0  0.24889  0.29703  0.41487  1.0000
  H   H26       1.0  0.25111  0.70297  0.91486  1.0000
  H   H27       1.0  0.75111  0.70297  0.58514  1.0000
  H   H28       1.0  0.74889  0.29703  0.08514  1.0000
  C   C1        1.0  0.93521  0.15757  0.49132  1.0000
  C   C2        1.0  0.56480  0.84243  0.99131  1.0000
  C   C3        1.0  0.06479  0.84243  0.50868  1.0000
  C   C4        1.0  0.43520  0.15757  0.00868  1.0000
  C   C5        1.0  0.86931  0.10139  0.32395  1.0000
  C   C6        1.0  0.63069  0.89862  0.82395  1.0000
  C   C7        1.0  0.13069  0.89861  0.67605  1.0000
  C   C8        1.0  0.36931  0.10139  0.17604  1.0000
  C   C9        1.0  0.82146  0.05871  0.23536  1.0000
  C   C10       1.0  0.67853  0.94129  0.73536  1.0000
  C   C11       1.0  0.17854  0.94129  0.76464  1.0000
  C   C12       1.0  0.32145  0.05870  0.26464  1.0000
  C   C13       1.0  0.88387  0.10834  0.15306  1.0000
  C   C14       1.0  0.61614  0.89167  0.65305  1.0000
  C   C15       1.0  0.11613  0.89167  0.84695  1.0000
  C   C16       1.0  0.38386  0.10833  0.34695  1.0000
  C   C17       1.0  0.99003  0.19851  0.15882  1.0000
  C   C18       1.0  0.50997  0.80150  0.65882  1.0000
  C   C19       1.0  0.00998  0.80149  0.84118  1.0000
  C   C20       1.0  0.49001  0.19850  0.34118  1.0000
  C   C21       1.0  0.03914  0.24110  0.24699  1.0000
  C   C22       1.0  0.46086  0.75890  0.74698  1.0000
  C   C23       1.0  0.96086  0.75889  0.75302  1.0000
  C   C24       1.0  0.53913  0.24110  0.25302  1.0000
  C   C25       1.0  0.97818  0.19116  0.33002  1.0000
  C   C26       1.0  0.52182  0.80884  0.83001  1.0000
  C   C27       1.0  0.02182  0.80884  0.66999  1.0000
  C   C28       1.0  0.47817  0.19116  0.16999  1.0000
  C   C29       1.0  0.12909  0.30748  0.44885  1.0000
  C   C30       1.0  0.37091  0.69252  0.94884  1.0000
  C   C31       1.0  0.87091  0.69252  0.55116  1.0000
  C   C32       1.0  0.62909  0.30748  0.05116  1.0000
  S   S1        1.0  0.95543  0.16358  0.61273  1.0000
  S   S2        1.0  0.54457  0.83642  0.11273  1.0000
  S   S3        1.0  0.04456  0.83642  0.38727  1.0000
  S   S4        1.0  0.45544  0.16358  0.88727  1.0000
  S   S5        1.0  0.81210  0.05960  0.43831  1.0000
  S   S6        1.0  0.68790  0.94040  0.93831  1.0000
  S   S7        1.0  0.18790  0.94040  0.56169  1.0000
  S   S8        1.0  0.31209  0.05961  0.06168  1.0000
  I   I1        1.0  0.71866  0.40920  0.50238  1.0000
  I   I2        1.0  0.78134  0.59079  0.00239  1.0000
  I   I3        1.0  0.28134  0.59079  0.49761  1.0000
  I   I4        1.0  0.21866  0.40921  0.99761  1.0000
  I   I5        1.0  0.44083  0.17760  0.63664  1.0000
  I   I6        1.0  0.05917  0.82240  0.13664  1.0000
  I   I7        1.0  0.55917  0.82240  0.36336  1.0000
  I   I8        1.0  0.94084  0.17760  0.86336  1.0000
  I   I9        1.0  0.54526  0.46632  0.77866  1.0000
  I   I10       1.0  0.95474  0.53368  0.27866  1.0000
  I   I11       1.0  0.45473  0.53368  0.22134  1.0000
  I   I12       1.0  0.04526  0.46632  0.72134  1.0000
  N   N1        1.0  0.01410  0.21941  0.42485  1.0000
  N   N2        1.0  0.48590  0.78059  0.92485  1.0000
  N   N3        1.0  0.98590  0.78058  0.57515  1.0000
  N   N4        1.0  0.51410  0.21942  0.07515  1.0000
