data_image0
_chemical_formula_structural       Zn2H20C16N4O8
_chemical_formula_sum              "Zn2 H20 C16 N4 O8"
_cell_length_a       5.25631
_cell_length_b       5.75751
_cell_length_c       15.993
_cell_angle_alpha    90.0007
_cell_angle_beta     90.0002
_cell_angle_gamma    110.374

_space_group_name_H-M_alt    "P 1"
_space_group_IT_number       1

loop_
  _space_group_symop_operation_xyz
  'x, y, z'

loop_
  _atom_site_type_symbol
  _atom_site_label
  _atom_site_symmetry_multiplicity
  _atom_site_fract_x
  _atom_site_fract_y
  _atom_site_fract_z
  _atom_site_occupancy
  Zn  Zn1       1.0  0.22741  0.95727  0.25001  1.0000
  Zn  Zn2       1.0  0.77258  0.04273  0.75001  1.0000
  H   H1        1.0  0.16584  0.51956  0.19858  1.0000
  H   H2        1.0  0.83422  0.48043  0.69857  1.0000
  H   H3        1.0  0.83413  0.48047  0.80142  1.0000
  H   H4        1.0  0.16585  0.51956  0.30142  1.0000
  H   H5        1.0  0.45788  0.62182  0.25000  1.0000
  H   H6        1.0  0.54211  0.37819  0.74998  1.0000
  H   H7        1.0  0.63751  0.33369  0.19897  1.0000
  H   H8        1.0  0.36251  0.66631  0.69896  1.0000
  H   H9        1.0  0.36249  0.66630  0.80103  1.0000
  H   H10       1.0  0.63751  0.33370  0.30104  1.0000
  H   H11       1.0  0.75610  0.14601  0.25000  1.0000
  H   H12       1.0  0.24388  0.85399  0.75000  1.0000
  H   H13       1.0  0.92164  0.32671  0.04968  1.0000
  H   H14       1.0  0.07835  0.67334  0.54969  1.0000
  H   H15       1.0  0.07840  0.67328  0.95031  1.0000
  H   H16       1.0  0.92164  0.32670  0.45032  1.0000
  H   H17       1.0  0.62309  0.42830  0.94477  1.0000
  H   H18       1.0  0.37689  0.57170  0.44479  1.0000
  H   H19       1.0  0.37695  0.57166  0.05521  1.0000
  H   H20       1.0  0.62310  0.42835  0.55522  1.0000
  C   C1        1.0  0.83749  0.87631  0.12330  1.0000
  C   C2        1.0  0.16251  0.12372  0.62331  1.0000
  C   C3        1.0  0.16251  0.12366  0.87669  1.0000
  C   C4        1.0  0.83746  0.87631  0.37670  1.0000
  C   C5        1.0  0.66656  0.94246  0.05894  1.0000
  C   C6        1.0  0.33348  0.05758  0.55895  1.0000
  C   C7        1.0  0.33350  0.05752  0.94104  1.0000
  C   C8        1.0  0.66652  0.94246  0.44106  1.0000
  C   C9        1.0  0.73740  0.18411  0.02760  1.0000
  C   C10       1.0  0.26256  0.81590  0.52762  1.0000
  C   C11       1.0  0.26259  0.81584  0.97238  1.0000
  C   C12       1.0  0.73740  0.18414  0.47239  1.0000
  C   C13       1.0  0.57214  0.24084  0.96916  1.0000
  C   C14       1.0  0.42784  0.75913  0.46917  1.0000
  C   C15       1.0  0.42789  0.75911  0.03083  1.0000
  C   C16       1.0  0.57214  0.24087  0.53084  1.0000
  N   N1        1.0  0.26119  0.61731  0.25000  1.0000
  N   N2        1.0  0.73881  0.38273  0.75000  1.0000
  N   N3        1.0  0.60327  0.21794  0.25000  1.0000
  N   N4        1.0  0.39672  0.78206  0.75000  1.0000
  O   O1        1.0  0.03782  0.05787  0.15490  1.0000
  O   O2        1.0  0.96219  0.94217  0.65490  1.0000
  O   O3        1.0  0.96214  0.94210  0.84512  1.0000
  O   O4        1.0  0.03784  0.05784  0.34512  1.0000
  O   O5        1.0  0.77751  0.65455  0.14572  1.0000
  O   O6        1.0  0.22248  0.34547  0.64572  1.0000
  O   O7        1.0  0.22249  0.34540  0.85428  1.0000
  O   O8        1.0  0.77748  0.65454  0.35429  1.0000
