data_image0
_chemical_formula_structural       Co2H28C44Br8N8O8
_chemical_formula_sum              "Co2 H28 C44 Br8 N8 O8"
_cell_length_a       7.32464
_cell_length_b       9.39432
_cell_length_c       19.5326
_cell_angle_alpha    91.5066
_cell_angle_beta     90.0134
_cell_angle_gamma    112.923

_space_group_name_H-M_alt    "P 1"
_space_group_IT_number       1

loop_
  _space_group_symop_operation_xyz
  'x, y, z'

loop_
  _atom_site_type_symbol
  _atom_site_label
  _atom_site_symmetry_multiplicity
  _atom_site_fract_x
  _atom_site_fract_y
  _atom_site_fract_z
  _atom_site_occupancy
  Co  Co1       1.0  0.35539  0.00013  0.75001  1.0000
  Co  Co2       1.0  0.64461  0.99987  0.24999  1.0000
  H   H1        1.0  0.08243  0.66110  0.72703  1.0000
  H   H2        1.0  0.42136  0.33913  0.77291  1.0000
  H   H3        1.0  0.91758  0.33891  0.27296  1.0000
  H   H4        1.0  0.57864  0.66088  0.22709  1.0000
  H   H5        1.0  0.70251  0.86478  0.69820  1.0000
  H   H6        1.0  0.83815  0.13554  0.80171  1.0000
  H   H7        1.0  0.29749  0.13522  0.30180  1.0000
  H   H8        1.0  0.16184  0.86446  0.19829  1.0000
  H   H9        1.0  0.21003  0.43970  0.67106  1.0000
  H   H10       1.0  0.77021  0.56051  0.82890  1.0000
  H   H11       1.0  0.78997  0.56031  0.32894  1.0000
  H   H12       1.0  0.22980  0.43949  0.17110  1.0000
  H   H13       1.0  0.40796  0.28424  0.58158  1.0000
  H   H14       1.0  0.12286  0.71578  0.91842  1.0000
  H   H15       1.0  0.59203  0.71576  0.41843  1.0000
  H   H16       1.0  0.87715  0.28422  0.08158  1.0000
  H   H17       1.0  0.70075  0.76865  0.54039  1.0000
  H   H18       1.0  0.93253  0.23141  0.95956  1.0000
  H   H19       1.0  0.29924  0.23135  0.45961  1.0000
  H   H20       1.0  0.06748  0.76859  0.04044  1.0000
  H   H21       1.0  0.60493  0.45893  0.66942  1.0000
  H   H22       1.0  0.14603  0.54126  0.83062  1.0000
  H   H23       1.0  0.39507  0.54107  0.33058  1.0000
  H   H24       1.0  0.85397  0.45874  0.16938  1.0000
  H   H25       1.0  0.77275  0.64965  0.64930  1.0000
  H   H26       1.0  0.12308  0.35047  0.85073  1.0000
  H   H27       1.0  0.22725  0.35035  0.35071  1.0000
  H   H28       1.0  0.87691  0.64953  0.14926  1.0000
  C   C1        1.0  0.11562  0.97679  0.64159  1.0000
  C   C2        1.0  0.13938  0.02346  0.85848  1.0000
  C   C3        1.0  0.88438  0.02322  0.35841  1.0000
  C   C4        1.0  0.86062  0.97653  0.14152  1.0000
  C   C5        1.0  0.22985  0.66916  0.71418  1.0000
  C   C6        1.0  0.56077  0.33108  0.78574  1.0000
  C   C7        1.0  0.77015  0.33085  0.28582  1.0000
  C   C8        1.0  0.43923  0.66893  0.21426  1.0000
  C   C9        1.0  0.54996  0.78226  0.69981  1.0000
  C   C10       1.0  0.76794  0.21801  0.80010  1.0000
  C   C11       1.0  0.45005  0.21774  0.30020  1.0000
  C   C12       1.0  0.23205  0.78199  0.19990  1.0000
  C   C13       1.0  0.94095  0.07427  0.55304  1.0000
  C   C14       1.0  0.86702  0.92574  0.94688  1.0000
  C   C15       1.0  0.05906  0.92574  0.44696  1.0000
  C   C16       1.0  0.13297  0.07426  0.05312  1.0000
  C   C17       1.0  0.29106  0.55970  0.68653  1.0000
  C   C18       1.0  0.73138  0.44055  0.81340  1.0000
  C   C19       1.0  0.70894  0.44030  0.31348  1.0000
  C   C20       1.0  0.26862  0.55945  0.18660  1.0000
  C   C21       1.0  0.56095  0.53022  0.56881  1.0000
  C   C22       1.0  0.03055  0.46985  0.93118  1.0000
  C   C23       1.0  0.43905  0.46978  0.43119  1.0000
  C   C24       1.0  0.96945  0.53016  0.06882  1.0000
  C   C25       1.0  0.44770  0.37891  0.54586  1.0000
  C   C26       1.0  0.06835  0.62112  0.95415  1.0000
  C   C27       1.0  0.55229  0.62109  0.45414  1.0000
  C   C28       1.0  0.93165  0.37888  0.04585  1.0000
  C   C29       1.0  0.61269  0.65066  0.52257  1.0000
  C   C30       1.0  0.96230  0.34938  0.97741  1.0000
  C   C31       1.0  0.38731  0.34934  0.47744  1.0000
  C   C32       1.0  0.03770  0.65062  0.02259  1.0000
  C   C33       1.0  0.61984  0.56474  0.64325  1.0000
  C   C34       1.0  0.05506  0.43543  0.85673  1.0000
  C   C35       1.0  0.38016  0.43526  0.35675  1.0000
  C   C36       1.0  0.94493  0.56457  0.14327  1.0000
  C   C37       1.0  0.11896  0.91830  0.51454  1.0000
  C   C38       1.0  0.20060  0.08181  0.98558  1.0000
  C   C39       1.0  0.88106  0.08170  0.48545  1.0000
  C   C40       1.0  0.79940  0.91818  0.01442  1.0000
  C   C41       1.0  0.06017  0.99302  0.56819  1.0000
  C   C42       1.0  0.06744  0.00711  0.93184  1.0000
  C   C43       1.0  0.93984  0.00698  0.43180  1.0000
  C   C44       1.0  0.93255  0.99288  0.06816  1.0000
  Br  Br1       1.0  0.27484  0.80424  0.53443  1.0000
  Br  Br2       1.0  0.47051  0.19604  0.96584  1.0000
  Br  Br3       1.0  0.72518  0.19576  0.46557  1.0000
  Br  Br4       1.0  0.52948  0.80395  0.03416  1.0000
  Br  Br5       1.0  0.85773  0.17108  0.62635  1.0000
  Br  Br6       1.0  0.68746  0.82886  0.87345  1.0000
  Br  Br7       1.0  0.14228  0.82892  0.37364  1.0000
  Br  Br8       1.0  0.31253  0.17116  0.12655  1.0000
  N   N1        1.0  0.39251  0.80786  0.72224  1.0000
  N   N2        1.0  0.58490  0.19238  0.77768  1.0000
  N   N3        1.0  0.60749  0.19215  0.27776  1.0000
  N   N4        1.0  0.41510  0.80762  0.22232  1.0000
  N   N5        1.0  0.49355  0.63274  0.67805  1.0000
  N   N6        1.0  0.86090  0.36752  0.82187  1.0000
  N   N7        1.0  0.50646  0.36726  0.32196  1.0000
  N   N8        1.0  0.13909  0.63248  0.17813  1.0000
  O   O1        1.0  0.99833  0.86920  0.67560  1.0000
  O   O2        1.0  0.12975  0.13114  0.82448  1.0000
  O   O3        1.0  0.00167  0.13081  0.32440  1.0000
  O   O4        1.0  0.87026  0.86887  0.17552  1.0000
  O   O5        1.0  0.28450  0.07471  0.66373  1.0000
  O   O6        1.0  0.21034  0.92551  0.83634  1.0000
  O   O7        1.0  0.71550  0.92529  0.33627  1.0000
  O   O8        1.0  0.78965  0.07448  0.16366  1.0000
