data_image0
_chemical_formula_structural       Mn4H18C26N10O16
_chemical_formula_sum              "Mn4 H18 C26 N10 O16"
_cell_length_a       10.1438
_cell_length_b       10.4589
_cell_length_c       11.211
_cell_angle_alpha    116.786
_cell_angle_beta     96.1867
_cell_angle_gamma    112.3

_space_group_name_H-M_alt    "P 1"
_space_group_IT_number       1

loop_
  _space_group_symop_operation_xyz
  'x, y, z'

loop_
  _atom_site_type_symbol
  _atom_site_label
  _atom_site_symmetry_multiplicity
  _atom_site_fract_x
  _atom_site_fract_y
  _atom_site_fract_z
  _atom_site_occupancy
  Mn  Mn1       1.0  0.33565  0.60480  0.29063  1.0000
  Mn  Mn2       1.0  0.66435  0.39520  0.70937  1.0000
  Mn  Mn3       1.0  0.50000  0.50000  0.00000  1.0000
  Mn  Mn4       1.0  0.50000  1.00000  0.50000  1.0000
  H   H1        1.0  0.09113  0.44642  0.93486  1.0000
  H   H2        1.0  0.90887  0.55358  0.06514  1.0000
  H   H3        1.0  0.80256  0.92339  0.71895  1.0000
  H   H4        1.0  0.19744  0.07661  0.28104  1.0000
  H   H5        1.0  0.00811  0.91758  0.86305  1.0000
  H   H6        1.0  0.99189  0.08242  0.13695  1.0000
  H   H7        1.0  0.25155  0.18302  0.03152  1.0000
  H   H8        1.0  0.74845  0.81698  0.96848  1.0000
  H   H9        1.0  0.91586  0.66064  0.30753  1.0000
  H   H10       1.0  0.08414  0.33936  0.69247  1.0000
  H   H11       1.0  0.13898  0.72733  0.49424  1.0000
  H   H12       1.0  0.86102  0.27267  0.50576  1.0000
  H   H13       1.0  0.09028  0.69560  0.69856  1.0000
  H   H14       1.0  0.90972  0.30441  0.30144  1.0000
  H   H15       1.0  0.63833  0.56572  0.55551  1.0000
  H   H16       1.0  0.36167  0.43428  0.44449  1.0000
  H   H17       1.0  0.64488  0.98864  0.25817  1.0000
  H   H18       1.0  0.35512  0.01136  0.74183  1.0000
  C   C1        1.0  0.93102  0.18362  0.81418  1.0000
  C   C2        1.0  0.06898  0.81638  0.18582  1.0000
  C   C3        1.0  0.76144  0.60810  0.41620  1.0000
  C   C4        1.0  0.23856  0.39190  0.58380  1.0000
  C   C5        1.0  0.62682  0.57295  0.31043  1.0000
  C   C6        1.0  0.37318  0.42705  0.68957  1.0000
  C   C7        1.0  0.06519  0.32496  0.91093  1.0000
  C   C8        1.0  0.93481  0.67504  0.08907  1.0000
  C   C9        1.0  0.90908  0.03346  0.79340  1.0000
  C   C10       1.0  0.09092  0.96654  0.20660  1.0000
  C   C11       1.0  0.02290  0.03065  0.87229  1.0000
  C   C12       1.0  0.97710  0.96935  0.12771  1.0000
  C   C13       1.0  0.15636  0.17335  0.96675  1.0000
  C   C14       1.0  0.84364  0.82665  0.03325  1.0000
  C   C15       1.0  0.90355  0.65384  0.39979  1.0000
  C   C16       1.0  0.09645  0.34617  0.60021  1.0000
  C   C17       1.0  0.57415  0.85710  0.21807  1.0000
  C   C18       1.0  0.42585  0.14290  0.78193  1.0000
  C   C19       1.0  0.02579  0.69002  0.50220  1.0000
  C   C20       1.0  0.97421  0.30998  0.49780  1.0000
  C   C21       1.0  0.00351  0.67478  0.61569  1.0000
  C   C22       1.0  0.99649  0.32522  0.38431  1.0000
  C   C23       1.0  0.81342  0.19414  0.73067  1.0000
  C   C24       1.0  0.18658  0.80586  0.26933  1.0000
  C   C25       1.0  0.74399  0.59734  0.53315  1.0000
  C   C26       1.0  0.25602  0.40266  0.46685  1.0000
  N   N1        1.0  0.17520  0.31652  0.98215  1.0000
  N   N2        1.0  0.82480  0.68348  0.01785  1.0000
  N   N3        1.0  0.39209  0.78006  0.51574  1.0000
  N   N4        1.0  0.60791  0.21994  0.48426  1.0000
  N   N5        1.0  0.46240  0.78479  0.61408  1.0000
  N   N6        1.0  0.53760  0.21521  0.38592  1.0000
  N   N7        1.0  0.52908  0.79178  0.71004  1.0000
  N   N8        1.0  0.47092  0.20822  0.28996  1.0000
  N   N9        1.0  0.86345  0.62697  0.62895  1.0000
  N   N10       1.0  0.13655  0.37303  0.37106  1.0000
  O   O1        1.0  0.30604  0.45337  0.06998  1.0000
  O   O2        1.0  0.69396  0.54663  0.93002  1.0000
  O   O3        1.0  0.51020  0.82590  0.30114  1.0000
  O   O4        1.0  0.48980  0.17410  0.69886  1.0000
  O   O5        1.0  0.51014  0.55924  0.34683  1.0000
  O   O6        1.0  0.48987  0.44076  0.65317  1.0000
  O   O7        1.0  0.64325  0.56271  0.19653  1.0000
  O   O8        1.0  0.35675  0.43729  0.80347  1.0000
  O   O9        1.0  0.56446  0.75415  0.09757  1.0000
  O   O10       1.0  0.43555  0.24586  0.90244  1.0000
  O   O11       1.0  0.82645  0.33547  0.77584  1.0000
  O   O12       1.0  0.17355  0.66453  0.22416  1.0000
  O   O13       1.0  0.71310  0.06044  0.62053  1.0000
  O   O14       1.0  0.28690  0.93956  0.37947  1.0000
  O   O15       1.0  0.84594  0.61207  0.73809  1.0000
  O   O16       1.0  0.15406  0.38793  0.26191  1.0000
