data_image0
_chemical_formula_structural       Cu4H24C24S4N4
_chemical_formula_sum              "Cu4 H24 C24 S4 N4"
_cell_length_a       6.09895
_cell_length_b       7.00153
_cell_length_c       13.6652
_cell_angle_alpha    89.9961
_cell_angle_beta     95.5556
_cell_angle_gamma    89.9996

_space_group_name_H-M_alt    "P 1"
_space_group_IT_number       1

loop_
  _space_group_symop_operation_xyz
  'x, y, z'

loop_
  _atom_site_type_symbol
  _atom_site_label
  _atom_site_symmetry_multiplicity
  _atom_site_fract_x
  _atom_site_fract_y
  _atom_site_fract_z
  _atom_site_occupancy
  Cu  Cu1       1.0  0.78357  0.12022  0.94386  1.0000
  Cu  Cu2       1.0  0.71643  0.62021  0.05614  1.0000
  Cu  Cu3       1.0  0.21644  0.87977  0.05614  1.0000
  Cu  Cu4       1.0  0.28356  0.37978  0.94386  1.0000
  H   H1        1.0  0.09424  0.85267  0.26485  1.0000
  H   H2        1.0  0.40577  0.35273  0.73516  1.0000
  H   H3        1.0  0.90578  0.14732  0.73515  1.0000
  H   H4        1.0  0.59423  0.64727  0.26485  1.0000
  H   H5        1.0  0.37886  0.14139  0.33039  1.0000
  H   H6        1.0  0.12111  0.64149  0.66960  1.0000
  H   H7        1.0  0.62114  0.85861  0.66961  1.0000
  H   H8        1.0  0.87888  0.35854  0.33040  1.0000
  H   H9        1.0  0.00756  0.89822  0.43684  1.0000
  H   H10       1.0  0.49242  0.39832  0.56316  1.0000
  H   H11       1.0  0.99243  0.10177  0.56315  1.0000
  H   H12       1.0  0.50757  0.60171  0.43685  1.0000
  H   H13       1.0  0.64957  0.04949  0.47004  1.0000
  H   H14       1.0  0.85040  0.54963  0.52996  1.0000
  H   H15       1.0  0.35042  0.95050  0.52995  1.0000
  H   H16       1.0  0.14959  0.45041  0.47005  1.0000
  H   H17       1.0  0.31521  0.19205  0.16134  1.0000
  H   H18       1.0  0.18478  0.69207  0.83864  1.0000
  H   H19       1.0  0.68481  0.80796  0.83865  1.0000
  H   H20       1.0  0.81521  0.30793  0.16136  1.0000
  H   H21       1.0  0.49182  0.13905  0.07992  1.0000
  H   H22       1.0  0.00819  0.63907  0.92007  1.0000
  H   H23       1.0  0.50819  0.86094  0.92006  1.0000
  H   H24       1.0  0.99184  0.36091  0.07994  1.0000
  C   C1        1.0  0.78482  0.96387  0.20040  1.0000
  C   C2        1.0  0.71515  0.46391  0.79961  1.0000
  C   C3        1.0  0.21517  0.03612  0.79961  1.0000
  C   C4        1.0  0.28484  0.53608  0.20039  1.0000
  C   C5        1.0  0.93729  0.91514  0.27998  1.0000
  C   C6        1.0  0.56269  0.41521  0.72003  1.0000
  C   C7        1.0  0.06269  0.08486  0.72002  1.0000
  C   C8        1.0  0.43730  0.58482  0.27998  1.0000
  C   C9        1.0  0.58070  0.04485  0.21926  1.0000
  C   C10       1.0  0.91932  0.54492  0.78073  1.0000
  C   C11       1.0  0.41933  0.95512  0.78073  1.0000
  C   C12       1.0  0.08069  0.45508  0.21928  1.0000
  C   C13       1.0  0.53540  0.07610  0.31666  1.0000
  C   C14       1.0  0.96457  0.57621  0.68333  1.0000
  C   C15       1.0  0.46460  0.92388  0.68333  1.0000
  C   C16       1.0  0.03538  0.42380  0.31667  1.0000
  C   C17       1.0  0.88839  0.94172  0.37650  1.0000
  C   C18       1.0  0.61161  0.44180  0.62351  1.0000
  C   C19       1.0  0.11161  0.05827  0.62350  1.0000
  C   C20       1.0  0.38839  0.55821  0.37650  1.0000
  C   C21       1.0  0.68745  0.02394  0.39479  1.0000
  C   C22       1.0  0.81255  0.52405  0.60521  1.0000
  C   C23       1.0  0.31255  0.97606  0.60521  1.0000
  C   C24       1.0  0.18746  0.47599  0.39479  1.0000
  S   S1        1.0  0.84772  0.91733  0.07849  1.0000
  S   S2        1.0  0.65228  0.41735  0.92151  1.0000
  S   S3        1.0  0.15226  0.08265  0.92151  1.0000
  S   S4        1.0  0.34775  0.58264  0.07849  1.0000
  N   N1        1.0  0.42085  0.08989  0.14048  1.0000
  N   N2        1.0  0.07914  0.58993  0.85953  1.0000
  N   N3        1.0  0.57914  0.91010  0.85952  1.0000
  N   N4        1.0  0.92087  0.41007  0.14050  1.0000
