data_image0
_chemical_formula_structural       Ag4H40C40I4N8
_chemical_formula_sum              "Ag4 H40 C40 I4 N8"
_cell_length_a       9.10289
_cell_length_b       11.1585
_cell_length_c       11.1585
_cell_angle_alpha    78.3244
_cell_angle_beta     80.8576
_cell_angle_gamma    80.8576

_space_group_name_H-M_alt    "P 1"
_space_group_IT_number       1

loop_
  _space_group_symop_operation_xyz
  'x, y, z'

loop_
  _atom_site_type_symbol
  _atom_site_label
  _atom_site_symmetry_multiplicity
  _atom_site_fract_x
  _atom_site_fract_y
  _atom_site_fract_z
  _atom_site_occupancy
  Ag  Ag1       1.0  0.41398  0.02521  0.89165  1.0000
  Ag  Ag2       1.0  0.08602  0.10835  0.97479  1.0000
  Ag  Ag3       1.0  0.58602  0.97479  0.10835  1.0000
  Ag  Ag4       1.0  0.91398  0.89165  0.02521  1.0000
  H   H1        1.0  0.60971  0.53209  0.05582  1.0000
  H   H2        1.0  0.89028  0.94418  0.46791  1.0000
  H   H3        1.0  0.39028  0.46791  0.94418  1.0000
  H   H4        1.0  0.10972  0.05582  0.53209  1.0000
  H   H5        1.0  0.38924  0.62535  0.40210  1.0000
  H   H6        1.0  0.11076  0.59790  0.37465  1.0000
  H   H7        1.0  0.61076  0.37465  0.59790  1.0000
  H   H8        1.0  0.88924  0.40210  0.62535  1.0000
  H   H9        1.0  0.50977  0.69021  0.18696  1.0000
  H   H10       1.0  0.99023  0.81304  0.30979  1.0000
  H   H11       1.0  0.49023  0.30980  0.81304  1.0000
  H   H12       1.0  0.00977  0.18696  0.69020  1.0000
  H   H13       1.0  0.30352  0.14398  0.60566  1.0000
  H   H14       1.0  0.19648  0.39434  0.85602  1.0000
  H   H15       1.0  0.69648  0.85602  0.39434  1.0000
  H   H16       1.0  0.80352  0.60566  0.14398  1.0000
  H   H17       1.0  0.59388  0.30946  0.14101  1.0000
  H   H18       1.0  0.90612  0.85899  0.69054  1.0000
  H   H19       1.0  0.40612  0.69054  0.85899  1.0000
  H   H20       1.0  0.09388  0.14101  0.30946  1.0000
  H   H21       1.0  0.75404  0.16405  0.44382  1.0000
  H   H22       1.0  0.74596  0.55618  0.83596  1.0000
  H   H23       1.0  0.24597  0.83595  0.55618  1.0000
  H   H24       1.0  0.25404  0.44382  0.16405  1.0000
  H   H25       1.0  0.34841  0.19080  0.37734  1.0000
  H   H26       1.0  0.15159  0.62266  0.80920  1.0000
  H   H27       1.0  0.65159  0.80920  0.62266  1.0000
  H   H28       1.0  0.84841  0.37734  0.19080  1.0000
  H   H29       1.0  0.53155  0.14945  0.30495  1.0000
  H   H30       1.0  0.96845  0.69505  0.85055  1.0000
  H   H31       1.0  0.46845  0.85055  0.69505  1.0000
  H   H32       1.0  0.03155  0.30495  0.14945  1.0000
  H   H33       1.0  0.36985  0.40411  0.48569  1.0000
  H   H34       1.0  0.13015  0.51431  0.59590  1.0000
  H   H35       1.0  0.63015  0.59590  0.51431  1.0000
  H   H36       1.0  0.86985  0.48569  0.40410  1.0000
  H   H37       1.0  0.74387  0.08428  0.69863  1.0000
  H   H38       1.0  0.75613  0.30137  0.91572  1.0000
  H   H39       1.0  0.25613  0.91572  0.30137  1.0000
  H   H40       1.0  0.24387  0.69863  0.08428  1.0000
  C   C1        1.0  0.48022  0.34215  0.31864  1.0000
  C   C2        1.0  0.01978  0.68136  0.65786  1.0000
  C   C3        1.0  0.51978  0.65786  0.68136  1.0000
  C   C4        1.0  0.98022  0.31864  0.34214  1.0000
  C   C5        1.0  0.55774  0.50402  0.15039  1.0000
  C   C6        1.0  0.94226  0.84961  0.49599  1.0000
  C   C7        1.0  0.44226  0.49598  0.84961  1.0000
  C   C8        1.0  0.05774  0.15039  0.50401  1.0000
  C   C9        1.0  0.43438  0.55631  0.34471  1.0000
  C   C10       1.0  0.06562  0.65528  0.44369  1.0000
  C   C11       1.0  0.56562  0.44369  0.65529  1.0000
  C   C12       1.0  0.93438  0.34471  0.55631  1.0000
  C   C13       1.0  0.50142  0.59285  0.22384  1.0000
  C   C14       1.0  0.99858  0.77615  0.40716  1.0000
  C   C15       1.0  0.49858  0.40716  0.77615  1.0000
  C   C16       1.0  0.00142  0.22385  0.59284  1.0000
  C   C17       1.0  0.42449  0.13829  0.59899  1.0000
  C   C18       1.0  0.07551  0.40101  0.86171  1.0000
  C   C19       1.0  0.57551  0.86171  0.40101  1.0000
  C   C20       1.0  0.92449  0.59899  0.13829  1.0000
  C   C21       1.0  0.54843  0.37910  0.19784  1.0000
  C   C22       1.0  0.95157  0.80216  0.62090  1.0000
  C   C23       1.0  0.45157  0.62090  0.80216  1.0000
  C   C24       1.0  0.04843  0.19784  0.37910  1.0000
  C   C25       1.0  0.66097  0.14707  0.51596  1.0000
  C   C26       1.0  0.83903  0.48404  0.85294  1.0000
  C   C27       1.0  0.33903  0.85293  0.48404  1.0000
  C   C28       1.0  0.16097  0.51596  0.14707  1.0000
  C   C29       1.0  0.46578  0.20746  0.36833  1.0000
  C   C30       1.0  0.03422  0.63167  0.79254  1.0000
  C   C31       1.0  0.53422  0.79254  0.63167  1.0000
  C   C32       1.0  0.96578  0.36833  0.20746  1.0000
  C   C33       1.0  0.42288  0.43193  0.39134  1.0000
  C   C34       1.0  0.07712  0.60866  0.56807  1.0000
  C   C35       1.0  0.57712  0.56807  0.60866  1.0000
  C   C36       1.0  0.92288  0.39134  0.43193  1.0000
  C   C37       1.0  0.65360  0.10855  0.64183  1.0000
  C   C38       1.0  0.84640  0.35817  0.89145  1.0000
  C   C39       1.0  0.34641  0.89145  0.35817  1.0000
  C   C40       1.0  0.15360  0.64183  0.10855  1.0000
  I   I1        1.0  0.16163  0.92836  0.82595  1.0000
  I   I2        1.0  0.33836  0.17405  0.07164  1.0000
  I   I3        1.0  0.83836  0.07164  0.17405  1.0000
  I   I4        1.0  0.66163  0.82595  0.92836  1.0000
  N   N1        1.0  0.51469  0.16477  0.49024  1.0000
  N   N2        1.0  0.98530  0.50976  0.83523  1.0000
  N   N3        1.0  0.48531  0.83523  0.50976  1.0000
  N   N4        1.0  0.01469  0.49024  0.16477  1.0000
  N   N5        1.0  0.50561  0.10357  0.69241  1.0000
  N   N6        1.0  0.99439  0.30758  0.89643  1.0000
  N   N7        1.0  0.49439  0.89642  0.30759  1.0000
  N   N8        1.0  0.00561  0.69241  0.10358  1.0000
