data_image0
_chemical_formula_structural       Cu2H28C24N8O8
_chemical_formula_sum              "Cu2 H28 C24 N8 O8"
_cell_length_a       7.54032
_cell_length_b       9.46055
_cell_length_c       9.6151
_cell_angle_alpha    89.9997
_cell_angle_beta     90.0003
_cell_angle_gamma    90.8994

_space_group_name_H-M_alt    "P 1"
_space_group_IT_number       1

loop_
  _space_group_symop_operation_xyz
  'x, y, z'

loop_
  _atom_site_type_symbol
  _atom_site_label
  _atom_site_symmetry_multiplicity
  _atom_site_fract_x
  _atom_site_fract_y
  _atom_site_fract_z
  _atom_site_occupancy
  Cu  Cu1       1.0  0.76206  0.75446  0.04732  1.0000
  Cu  Cu2       1.0  0.23794  0.24553  0.54731  1.0000
  H   H1        1.0  0.56203  0.45666  0.45717  1.0000
  H   H2        1.0  0.43797  0.54335  0.95717  1.0000
  H   H3        1.0  0.47840  0.21636  0.82224  1.0000
  H   H4        1.0  0.52158  0.78363  0.32223  1.0000
  H   H5        1.0  0.85189  0.49350  0.63197  1.0000
  H   H6        1.0  0.14811  0.50654  0.13196  1.0000
  H   H7        1.0  0.74200  0.26350  0.95328  1.0000
  H   H8        1.0  0.25800  0.73648  0.45328  1.0000
  H   H9        1.0  0.98759  0.18511  0.80747  1.0000
  H   H10       1.0  0.01238  0.81485  0.30750  1.0000
  H   H11       1.0  0.07220  0.28747  0.94743  1.0000
  H   H12       1.0  0.92778  0.71251  0.44746  1.0000
  H   H13       1.0  0.06077  0.36310  0.77735  1.0000
  H   H14       1.0  0.93923  0.63686  0.27735  1.0000
  H   H15       1.0  0.96278  0.01607  0.64381  1.0000
  H   H16       1.0  0.03724  0.98392  0.14383  1.0000
  H   H17       1.0  0.94593  0.28681  0.29419  1.0000
  H   H18       1.0  0.05407  0.71320  0.79420  1.0000
  H   H19       1.0  0.64474  0.96967  0.50146  1.0000
  H   H20       1.0  0.35528  0.03031  0.00146  1.0000
  H   H21       1.0  0.50368  0.07262  0.31200  1.0000
  H   H22       1.0  0.49633  0.92739  0.81197  1.0000
  H   H23       1.0  0.48326  0.32458  0.29359  1.0000
  H   H24       1.0  0.51674  0.67545  0.79356  1.0000
  H   H25       1.0  0.47780  0.26098  0.12117  1.0000
  H   H26       1.0  0.52222  0.73903  0.62114  1.0000
  H   H27       1.0  0.67587  0.33971  0.18601  1.0000
  H   H28       1.0  0.32417  0.66027  0.68600  1.0000
  C   C1        1.0  0.58632  0.41251  0.55907  1.0000
  C   C2        1.0  0.41370  0.58749  0.05904  1.0000
  C   C3        1.0  0.53612  0.28782  0.74622  1.0000
  C   C4        1.0  0.46388  0.71218  0.24623  1.0000
  C   C5        1.0  0.72947  0.43334  0.64500  1.0000
  C   C6        1.0  0.27057  0.56667  0.14496  1.0000
  C   C7        1.0  0.80792  0.34271  0.88657  1.0000
  C   C8        1.0  0.19205  0.65728  0.38659  1.0000
  C   C9        1.0  0.99387  0.29166  0.85146  1.0000
  C   C10       1.0  0.00605  0.70833  0.35146  1.0000
  C   C11       1.0  0.82094  0.48016  0.97165  1.0000
  C   C12       1.0  0.17905  0.51989  0.47165  1.0000
  C   C13       1.0  0.91280  0.06459  0.55011  1.0000
  C   C14       1.0  0.08718  0.93540  0.05012  1.0000
  C   C15       1.0  0.91058  0.20622  0.37002  1.0000
  C   C16       1.0  0.08943  0.79378  0.87000  1.0000
  C   C17       1.0  0.75670  0.03980  0.48128  1.0000
  C   C18       1.0  0.24328  0.96019  0.98131  1.0000
  C   C19       1.0  0.61721  0.12652  0.26120  1.0000
  C   C20       1.0  0.38282  0.87346  0.76119  1.0000
  C   C21       1.0  0.56177  0.27216  0.21367  1.0000
  C   C22       1.0  0.43825  0.72787  0.71363  1.0000
  C   C23       1.0  0.67002  0.02565  0.14099  1.0000
  C   C24       1.0  0.33000  0.97434  0.64098  1.0000
  N   N1        1.0  0.46651  0.32081  0.62268  1.0000
  N   N2        1.0  0.53343  0.67916  0.12268  1.0000
  N   N3        1.0  0.69549  0.35419  0.76292  1.0000
  N   N4        1.0  0.30453  0.64584  0.26292  1.0000
  N   N5        1.0  0.00802  0.16868  0.48017  1.0000
  N   N6        1.0  0.99203  0.83134  0.98018  1.0000
  N   N7        1.0  0.75630  0.12978  0.36844  1.0000
  N   N8        1.0  0.24369  0.87022  0.86843  1.0000
  O   O1        1.0  0.88213  0.47098  0.09219  1.0000
  O   O2        1.0  0.11788  0.52901  0.59222  1.0000
  O   O3        1.0  0.76904  0.59467  0.91268  1.0000
  O   O4        1.0  0.23093  0.40537  0.41265  1.0000
  O   O5        1.0  0.74241  0.91125  0.18398  1.0000
  O   O6        1.0  0.25759  0.08874  0.68401  1.0000
  O   O7        1.0  0.63324  0.05508  0.01781  1.0000
  O   O8        1.0  0.36675  0.94493  0.51779  1.0000
