data_image0
_chemical_formula_structural       Ca2P4H16C8O20
_chemical_formula_sum              "Ca2 P4 H16 C8 O20"
_cell_length_a       5.52632
_cell_length_b       7.29338
_cell_length_c       13.1287
_cell_angle_alpha    107.141
_cell_angle_beta     89.9993
_cell_angle_gamma    89.9997

_space_group_name_H-M_alt    "P 1"
_space_group_IT_number       1

loop_
  _space_group_symop_operation_xyz
  'x, y, z'

loop_
  _atom_site_type_symbol
  _atom_site_label
  _atom_site_symmetry_multiplicity
  _atom_site_fract_x
  _atom_site_fract_y
  _atom_site_fract_z
  _atom_site_occupancy
  Ca  Ca1       1.0  0.37447  0.75000  0.50000  1.0000
  Ca  Ca2       1.0  0.62553  0.25000  0.50000  1.0000
  P   P1        1.0  0.82429  0.77224  0.34299  1.0000
  P   P2        1.0  0.17571  0.27225  0.34299  1.0000
  P   P3        1.0  0.17572  0.22776  0.65701  1.0000
  P   P4        1.0  0.82429  0.72776  0.65700  1.0000
  H   H1        1.0  0.79494  0.45618  0.34232  1.0000
  H   H2        1.0  0.20507  0.95617  0.34231  1.0000
  H   H3        1.0  0.20506  0.54383  0.65769  1.0000
  H   H4        1.0  0.79493  0.04383  0.65769  1.0000
  H   H5        1.0  0.79336  0.46269  0.99779  1.0000
  H   H6        1.0  0.20662  0.96270  0.99779  1.0000
  H   H7        1.0  0.20663  0.53731  0.00221  1.0000
  H   H8        1.0  0.79336  0.03730  0.00221  1.0000
  H   H9        1.0  0.55543  0.81414  0.21042  1.0000
  H   H10       1.0  0.44457  0.31417  0.21042  1.0000
  H   H11       1.0  0.44459  0.18585  0.78958  1.0000
  H   H12       1.0  0.55543  0.68585  0.78958  1.0000
  H   H13       1.0  0.81360  0.96465  0.22370  1.0000
  H   H14       1.0  0.18637  0.46465  0.22370  1.0000
  H   H15       1.0  0.18642  0.03535  0.77630  1.0000
  H   H16       1.0  0.81361  0.53535  0.77630  1.0000
  C   C1        1.0  0.86639  0.67727  0.12262  1.0000
  C   C2        1.0  0.13361  0.17727  0.12262  1.0000
  C   C3        1.0  0.13363  0.32273  0.87738  1.0000
  C   C4        1.0  0.86640  0.82272  0.87737  1.0000
  C   C5        1.0  0.75311  0.81854  0.21782  1.0000
  C   C6        1.0  0.24689  0.31854  0.21781  1.0000
  C   C7        1.0  0.24691  0.18146  0.78219  1.0000
  C   C8        1.0  0.75311  0.68147  0.78219  1.0000
  O   O1        1.0  0.70449  0.56970  0.32915  1.0000
  O   O2        1.0  0.29552  0.06970  0.32915  1.0000
  O   O3        1.0  0.29551  0.43031  0.67086  1.0000
  O   O4        1.0  0.70448  0.93031  0.67085  1.0000
  O   O5        1.0  0.68473  0.91511  0.43145  1.0000
  O   O6        1.0  0.31527  0.41512  0.43145  1.0000
  O   O7        1.0  0.31527  0.08489  0.56855  1.0000
  O   O8        1.0  0.68474  0.58488  0.56855  1.0000
  O   O9        1.0  0.09800  0.77210  0.36141  1.0000
  O   O10       1.0  0.90200  0.27209  0.36141  1.0000
  O   O11       1.0  0.90200  0.22791  0.63860  1.0000
  O   O12       1.0  0.09800  0.72792  0.63859  1.0000
  O   O13       1.0  0.08794  0.67755  0.10470  1.0000
  O   O14       1.0  0.91203  0.17754  0.10471  1.0000
  O   O15       1.0  0.91206  0.32243  0.89530  1.0000
  O   O16       1.0  0.08795  0.82243  0.89529  1.0000
  O   O17       1.0  0.71026  0.55703  0.06250  1.0000
  O   O18       1.0  0.28973  0.05704  0.06249  1.0000
  O   O19       1.0  0.28973  0.44297  0.93750  1.0000
  O   O20       1.0  0.71026  0.94296  0.93751  1.0000
