data_image0
_chemical_formula_structural       Zn2H16C20N4O8
_chemical_formula_sum              "Zn2 H16 C20 N4 O8"
_cell_length_a       6.34007
_cell_length_b       8.69746
_cell_length_c       9.37178
_cell_angle_alpha    82.3524
_cell_angle_beta     79.6204
_cell_angle_gamma    82.4536

_space_group_name_H-M_alt    "P 1"
_space_group_IT_number       1

loop_
  _space_group_symop_operation_xyz
  'x, y, z'

loop_
  _atom_site_type_symbol
  _atom_site_label
  _atom_site_symmetry_multiplicity
  _atom_site_fract_x
  _atom_site_fract_y
  _atom_site_fract_z
  _atom_site_occupancy
  Zn  Zn1       1.0  0.24824  0.08098  0.45804  1.0000
  Zn  Zn2       1.0  0.75175  0.91902  0.54196  1.0000
  H   H1        1.0  0.31845  0.96092  0.76893  1.0000
  H   H2        1.0  0.68155  0.03908  0.23108  1.0000
  H   H3        1.0  0.74190  0.47903  0.76962  1.0000
  H   H4        1.0  0.25811  0.52096  0.23038  1.0000
  H   H5        1.0  0.10243  0.55869  0.65344  1.0000
  H   H6        1.0  0.89758  0.44131  0.34655  1.0000
  H   H7        1.0  0.39005  0.64585  0.76898  1.0000
  H   H8        1.0  0.60997  0.35414  0.23101  1.0000
  H   H9        1.0  0.32652  0.83647  0.02616  1.0000
  H   H10       1.0  0.67347  0.16354  0.97384  1.0000
  H   H11       1.0  0.79702  0.22636  0.65349  1.0000
  H   H12       1.0  0.20296  0.77363  0.34651  1.0000
  H   H13       1.0  0.00331  0.70288  0.15836  1.0000
  H   H14       1.0  0.99669  0.29714  0.84164  1.0000
  H   H15       1.0  0.69402  0.69624  0.03067  1.0000
  H   H16       1.0  0.30597  0.30376  0.96934  1.0000
  C   C1        1.0  0.83035  0.82796  0.83351  1.0000
  C   C2        1.0  0.16964  0.17204  0.16650  1.0000
  C   C3        1.0  0.18541  0.90340  0.83436  1.0000
  C   C4        1.0  0.81459  0.09659  0.16564  1.0000
  C   C5        1.0  0.61243  0.44126  0.72559  1.0000
  C   C6        1.0  0.38758  0.55873  0.27441  1.0000
  C   C7        1.0  0.25501  0.48705  0.66222  1.0000
  C   C8        1.0  0.74500  0.51295  0.33777  1.0000
  C   C9        1.0  0.41435  0.53450  0.72419  1.0000
  C   C10       1.0  0.58567  0.46550  0.27579  1.0000
  C   C11       1.0  0.18637  0.83303  0.97523  1.0000
  C   C12       1.0  0.81362  0.16697  0.02477  1.0000
  C   C13       1.0  0.64581  0.30265  0.66422  1.0000
  C   C14       1.0  0.35418  0.69734  0.33579  1.0000
  C   C15       1.0  0.00750  0.75847  0.04698  1.0000
  C   C16       1.0  0.99251  0.24154  0.95302  1.0000
  C   C17       1.0  0.83363  0.75502  0.97724  1.0000
  C   C18       1.0  0.16637  0.24499  0.02276  1.0000
  C   C19       1.0  0.28619  0.34403  0.60079  1.0000
  C   C20       1.0  0.71381  0.65597  0.39921  1.0000
  N   N1        1.0  0.48715  0.25657  0.60575  1.0000
  N   N2        1.0  0.51284  0.74342  0.39425  1.0000
  N   N3        1.0  0.01447  0.90008  0.76726  1.0000
  N   N4        1.0  0.98552  0.09992  0.23274  1.0000
  O   O1        1.0  0.52068  0.12280  0.54274  1.0000
  O   O2        1.0  0.47931  0.87720  0.45726  1.0000
  O   O3        1.0  0.14752  0.29034  0.54272  1.0000
  O   O4        1.0  0.85248  0.70967  0.45728  1.0000
  O   O5        1.0  0.67713  0.83316  0.76040  1.0000
  O   O6        1.0  0.32287  0.16684  0.23960  1.0000
  O   O7        1.0  0.01326  0.97004  0.63038  1.0000
  O   O8        1.0  0.98673  0.02997  0.36962  1.0000
