data_image0
_chemical_formula_structural       Cu2H12C20N24
_chemical_formula_sum              "Cu2 H12 C20 N24"
_cell_length_a       6.98306
_cell_length_b       9.48832
_cell_length_c       9.70441
_cell_angle_alpha    94.5235
_cell_angle_beta     89.9988
_cell_angle_gamma    89.9997

_space_group_name_H-M_alt    "P 1"
_space_group_IT_number       1

loop_
  _space_group_symop_operation_xyz
  'x, y, z'

loop_
  _atom_site_type_symbol
  _atom_site_label
  _atom_site_symmetry_multiplicity
  _atom_site_fract_x
  _atom_site_fract_y
  _atom_site_fract_z
  _atom_site_occupancy
  Cu  Cu1       1.0  0.50001  0.49998  0.49999  1.0000
  Cu  Cu2       1.0  0.99999  0.50000  0.99999  1.0000
  H   H1        1.0  0.89892  0.63834  0.57278  1.0000
  H   H2        1.0  0.39895  0.36167  0.92722  1.0000
  H   H3        1.0  0.10110  0.36165  0.42721  1.0000
  H   H4        1.0  0.60104  0.63833  0.07276  1.0000
  H   H5        1.0  0.06455  0.85705  0.50103  1.0000
  H   H6        1.0  0.56459  0.14295  0.99902  1.0000
  H   H7        1.0  0.93544  0.14296  0.49899  1.0000
  H   H8        1.0  0.43540  0.85705  0.00098  1.0000
  H   H9        1.0  0.58892  0.95211  0.26505  1.0000
  H   H10       1.0  0.08891  0.04791  0.23493  1.0000
  H   H11       1.0  0.41110  0.04788  0.73495  1.0000
  H   H12       1.0  0.91109  0.95210  0.76508  1.0000
  C   C1        1.0  0.38610  0.70335  0.31982  1.0000
  C   C2        1.0  0.88610  0.29664  0.18020  1.0000
  C   C3        1.0  0.61393  0.29664  0.68019  1.0000
  C   C4        1.0  0.11390  0.70337  0.81979  1.0000
  C   C5        1.0  0.83192  0.70797  0.50270  1.0000
  C   C6        1.0  0.33193  0.29204  0.99733  1.0000
  C   C7        1.0  0.16807  0.29202  0.49731  1.0000
  C   C8        1.0  0.66807  0.70797  0.00266  1.0000
  C   C9        1.0  0.57012  0.75779  0.36858  1.0000
  C   C10       1.0  0.07011  0.24224  0.13144  1.0000
  C   C11       1.0  0.42988  0.24222  0.63142  1.0000
  C   C12       1.0  0.92990  0.75777  0.86857  1.0000
  C   C13       1.0  0.92202  0.82939  0.46165  1.0000
  C   C14       1.0  0.42201  0.17063  0.03838  1.0000
  C   C15       1.0  0.07797  0.17060  0.53836  1.0000
  C   C16       1.0  0.57798  0.82937  0.96162  1.0000
  C   C17       1.0  0.66101  0.88105  0.33180  1.0000
  C   C18       1.0  0.16099  0.11897  0.16822  1.0000
  C   C19       1.0  0.33899  0.11895  0.66822  1.0000
  C   C20       1.0  0.83900  0.88104  0.83179  1.0000
  N   N1        1.0  0.31818  0.58720  0.37605  1.0000
  N   N2        1.0  0.81817  0.41279  0.12396  1.0000
  N   N3        1.0  0.68182  0.41279  0.62395  1.0000
  N   N4        1.0  0.18183  0.58722  0.87603  1.0000
  N   N5        1.0  0.15910  0.54944  0.30765  1.0000
  N   N6        1.0  0.65909  0.45057  0.19235  1.0000
  N   N7        1.0  0.84089  0.45056  0.69235  1.0000
  N   N8        1.0  0.34091  0.54944  0.80764  1.0000
  N   N9        1.0  0.27194  0.73864  0.21717  1.0000
  N   N10       1.0  0.77189  0.26138  0.28285  1.0000
  N   N11       1.0  0.72806  0.26135  0.78283  1.0000
  N   N12       1.0  0.22812  0.73863  0.71714  1.0000
  N   N13       1.0  0.13138  0.64054  0.21210  1.0000
  N   N14       1.0  0.63134  0.35949  0.28791  1.0000
  N   N15       1.0  0.86861  0.35946  0.78790  1.0000
  N   N16       1.0  0.36866  0.64052  0.71208  1.0000
  N   N17       1.0  0.65800  0.67277  0.45511  1.0000
  N   N18       1.0  0.15802  0.32725  0.04490  1.0000
  N   N19       1.0  0.34199  0.32721  0.54489  1.0000
  N   N20       1.0  0.84199  0.67276  0.95511  1.0000
  N   N21       1.0  0.83723  0.91554  0.37740  1.0000
  N   N22       1.0  0.33725  0.08448  0.12260  1.0000
  N   N23       1.0  0.16275  0.08445  0.62260  1.0000
  N   N24       1.0  0.66274  0.91553  0.87740  1.0000
