data_image0
_chemical_formula_structural       Ag2H20C22N6O4
_chemical_formula_sum              "Ag2 H20 C22 N6 O4"
_cell_length_a       6.95763
_cell_length_b       8.61483
_cell_length_c       10.8997
_cell_angle_alpha    67.3527
_cell_angle_beta     76.1676
_cell_angle_gamma    70.0846

_space_group_name_H-M_alt    "P 1"
_space_group_IT_number       1

loop_
  _space_group_symop_operation_xyz
  'x, y, z'

loop_
  _atom_site_type_symbol
  _atom_site_label
  _atom_site_symmetry_multiplicity
  _atom_site_fract_x
  _atom_site_fract_y
  _atom_site_fract_z
  _atom_site_occupancy
  Ag  Ag1       1.0  0.49673  0.94895  0.39599  1.0000
  Ag  Ag2       1.0  0.50327  0.05105  0.60401  1.0000
  H   H1        1.0  0.15339  0.00640  0.24646  1.0000
  H   H2        1.0  0.84660  0.99360  0.75354  1.0000
  H   H3        1.0  0.05904  0.91029  0.08298  1.0000
  H   H4        1.0  0.94096  0.08971  0.91702  1.0000
  H   H5        1.0  0.44494  0.61180  0.91241  1.0000
  H   H6        1.0  0.55506  0.38820  0.08759  1.0000
  H   H7        1.0  0.36705  0.84020  0.82448  1.0000
  H   H8        1.0  0.63295  0.15980  0.17552  1.0000
  H   H9        1.0  0.18045  0.73340  0.93182  1.0000
  H   H10       1.0  0.81955  0.26660  0.06818  1.0000
  H   H11       1.0  0.83459  0.19339  0.33749  1.0000
  H   H12       1.0  0.16541  0.80661  0.66251  1.0000
  H   H13       1.0  0.46355  0.35314  0.32226  1.0000
  H   H14       1.0  0.53645  0.64687  0.67773  1.0000
  H   H15       1.0  0.85002  0.43330  0.61427  1.0000
  H   H16       1.0  0.14998  0.56670  0.38572  1.0000
  H   H17       1.0  0.83258  0.73883  0.26523  1.0000
  H   H18       1.0  0.16742  0.26117  0.73478  1.0000
  H   H19       1.0  0.90594  0.62799  0.14797  1.0000
  H   H20       1.0  0.09406  0.37202  0.85203  1.0000
  C   C1        1.0  0.60748  0.77354  0.15541  1.0000
  C   C2        1.0  0.39252  0.22647  0.84459  1.0000
  C   C3        1.0  0.26870  0.92519  0.19239  1.0000
  C   C4        1.0  0.73130  0.07481  0.80762  1.0000
  C   C5        1.0  0.21781  0.87547  0.10053  1.0000
  C   C6        1.0  0.78219  0.12453  0.89947  1.0000
  C   C7        1.0  0.37936  0.77826  0.03163  1.0000
  C   C8        1.0  0.62064  0.22174  0.96838  1.0000
  C   C9        1.0  0.34043  0.73643  0.92016  1.0000
  C   C10       1.0  0.65957  0.26357  0.07984  1.0000
  C   C11       1.0  0.08630  0.20045  0.48850  1.0000
  C   C12       1.0  0.91369  0.79955  0.51150  1.0000
  C   C13       1.0  0.86479  0.30321  0.47806  1.0000
  C   C14       1.0  0.13521  0.69679  0.52194  1.0000
  C   C15       1.0  0.75421  0.28202  0.39423  1.0000
  C   C16       1.0  0.24579  0.71798  0.60577  1.0000
  C   C17       1.0  0.54824  0.37028  0.38624  1.0000
  C   C18       1.0  0.45176  0.62972  0.61376  1.0000
  C   C19       1.0  0.44378  0.48808  0.45865  1.0000
  C   C20       1.0  0.55622  0.51192  0.54135  1.0000
  C   C21       1.0  0.76589  0.41675  0.54981  1.0000
  C   C22       1.0  0.23411  0.58325  0.45019  1.0000
  N   N1        1.0  0.46228  0.87672  0.22057  1.0000
  N   N2        1.0  0.53771  0.12328  0.77943  1.0000
  N   N3        1.0  0.80154  0.71683  0.18728  1.0000
  N   N4        1.0  0.19846  0.28317  0.81272  1.0000
  N   N5        1.0  0.57354  0.72595  0.05957  1.0000
  N   N6        1.0  0.42647  0.27406  0.94043  1.0000
  O   O1        1.0  0.18414  0.14802  0.39078  1.0000
  O   O2        1.0  0.81585  0.85198  0.60922  1.0000
  O   O3        1.0  0.15976  0.17258  0.59442  1.0000
  O   O4        1.0  0.84024  0.82741  0.40557  1.0000
