data_image0
_chemical_formula_structural       MnH8C10N2F3
_chemical_formula_sum              "Mn1 H8 C10 N2 F3"
_cell_length_a       3.97125
_cell_length_b       7.99877
_cell_length_c       7.99875
_cell_angle_alpha    82.5969
_cell_angle_beta     76.2151
_cell_angle_gamma    76.2156

_space_group_name_H-M_alt    "P 1"
_space_group_IT_number       1

loop_
  _space_group_symop_operation_xyz
  'x, y, z'

loop_
  _atom_site_type_symbol
  _atom_site_label
  _atom_site_symmetry_multiplicity
  _atom_site_fract_x
  _atom_site_fract_y
  _atom_site_fract_z
  _atom_site_occupancy
  Mn  Mn1       1.0  0.99999  0.99945  0.00055  1.0000
  H   H1        1.0  0.59707  0.37515  0.01683  1.0000
  H   H2        1.0  0.98430  0.62333  0.98004  1.0000
  H   H3        1.0  0.40294  0.98317  0.62486  1.0000
  H   H4        1.0  0.01571  0.01997  0.37666  1.0000
  H   H5        1.0  0.36623  0.60472  0.22800  1.0000
  H   H6        1.0  0.20256  0.39277  0.77025  1.0000
  H   H7        1.0  0.63377  0.77200  0.39529  1.0000
  H   H8        1.0  0.79745  0.22975  0.60723  1.0000
  C   C1        1.0  0.63619  0.35063  0.14896  1.0000
  C   C2        1.0  0.13202  0.64861  0.84927  1.0000
  C   C3        1.0  0.36382  0.85104  0.64938  1.0000
  C   C4        1.0  0.86798  0.15074  0.35138  1.0000
  C   C5        1.0  0.51154  0.47698  0.26637  1.0000
  C   C6        1.0  0.25475  0.52185  0.73237  1.0000
  C   C7        1.0  0.48847  0.73364  0.52301  1.0000
  C   C8        1.0  0.74525  0.26762  0.47816  1.0000
  C   C9        1.0  0.56509  0.43522  0.43522  1.0000
  C   C10       1.0  0.43491  0.56477  0.56479  1.0000
  N   N1        1.0  0.81328  0.19088  0.19006  1.0000
  N   N2        1.0  0.18675  0.80994  0.80912  1.0000
  F   F1        1.0  0.99998  0.17334  0.82665  1.0000
  F   F2        1.0  0.99998  0.82555  0.17445  1.0000
  F   F3        1.0  0.50000  0.99891  0.00109  1.0000
