data_image0
_chemical_formula_structural       Mn4H32C40N8F12
_chemical_formula_sum              "Mn4 H32 C40 N8 F12"
_cell_length_a       7.97039
_cell_length_b       10.4975
_cell_length_c       11.3268
_cell_angle_alpha    89.9851
_cell_angle_beta     89.9985
_cell_angle_gamma    89.9992

_space_group_name_H-M_alt    "P 1"
_space_group_IT_number       1

loop_
  _space_group_symop_operation_xyz
  'x, y, z'

loop_
  _atom_site_type_symbol
  _atom_site_label
  _atom_site_symmetry_multiplicity
  _atom_site_fract_x
  _atom_site_fract_y
  _atom_site_fract_z
  _atom_site_occupancy
  Mn  Mn1       1.0  0.37498  0.24686  0.99702  1.0000
  Mn  Mn2       1.0  0.87498  0.25313  0.00298  1.0000
  Mn  Mn3       1.0  0.62530  0.74737  0.50418  1.0000
  Mn  Mn4       1.0  0.12529  0.75264  0.49583  1.0000
  H   H1        1.0  0.47179  0.42580  0.19341  1.0000
  H   H2        1.0  0.97187  0.07420  0.80656  1.0000
  H   H3        1.0  0.52694  0.92667  0.30865  1.0000
  H   H4        1.0  0.02691  0.57334  0.69134  1.0000
  H   H5        1.0  0.27125  0.06349  0.19110  1.0000
  H   H6        1.0  0.77130  0.43652  0.80891  1.0000
  H   H7        1.0  0.72896  0.56491  0.31031  1.0000
  H   H8        1.0  0.22896  0.93509  0.68968  1.0000
  H   H9        1.0  0.47349  0.43423  0.41543  1.0000
  H   H10       1.0  0.97348  0.06576  0.58454  1.0000
  H   H11       1.0  0.52380  0.93529  0.08680  1.0000
  H   H12       1.0  0.02379  0.56470  0.91318  1.0000
  H   H13       1.0  0.26902  0.05148  0.41304  1.0000
  H   H14       1.0  0.76907  0.44852  0.58697  1.0000
  H   H15       1.0  0.73171  0.55375  0.08862  1.0000
  H   H16       1.0  0.23171  0.94625  0.91137  1.0000
  H   H17       1.0  0.49211  0.05568  0.58062  1.0000
  H   H18       1.0  0.99219  0.44432  0.41938  1.0000
  H   H19       1.0  0.50721  0.55775  0.91989  1.0000
  H   H20       1.0  0.00718  0.94223  0.08014  1.0000
  H   H21       1.0  0.26128  0.42992  0.57883  1.0000
  H   H22       1.0  0.76126  0.07009  0.42119  1.0000
  H   H23       1.0  0.74047  0.93108  0.92116  1.0000
  H   H24       1.0  0.24048  0.56892  0.07886  1.0000
  H   H25       1.0  0.49204  0.06833  0.80235  1.0000
  H   H26       1.0  0.99213  0.43167  0.19765  1.0000
  H   H27       1.0  0.50833  0.56966  0.69839  1.0000
  H   H28       1.0  0.00831  0.93032  0.30162  1.0000
  H   H29       1.0  0.26327  0.42083  0.80069  1.0000
  H   H30       1.0  0.76337  0.07916  0.19931  1.0000
  H   H31       1.0  0.73772  0.92174  0.69950  1.0000
  H   H32       1.0  0.23778  0.57826  0.30051  1.0000
  C   C1        1.0  0.42737  0.34615  0.24659  1.0000
  C   C2        1.0  0.92743  0.15385  0.75340  1.0000
  C   C3        1.0  0.57179  0.84726  0.25543  1.0000
  C   C4        1.0  0.07178  0.65275  0.74457  1.0000
  C   C5        1.0  0.31612  0.14213  0.24530  1.0000
  C   C6        1.0  0.81617  0.35788  0.75471  1.0000
  C   C7        1.0  0.68367  0.64363  0.25640  1.0000
  C   C8        1.0  0.18365  0.85636  0.74359  1.0000
  C   C9        1.0  0.42798  0.34977  0.36914  1.0000
  C   C10       1.0  0.92799  0.15024  0.63086  1.0000
  C   C11       1.0  0.57079  0.85105  0.13277  1.0000
  C   C12       1.0  0.07077  0.64894  0.86722  1.0000
  C   C13       1.0  0.31652  0.13611  0.36793  1.0000
  C   C14       1.0  0.81657  0.36391  0.63206  1.0000
  C   C15       1.0  0.68339  0.63810  0.13365  1.0000
  C   C16       1.0  0.18339  0.86189  0.86634  1.0000
  C   C17       1.0  0.37306  0.24228  0.43169  1.0000
  C   C18       1.0  0.87309  0.25773  0.56831  1.0000
  C   C19       1.0  0.62643  0.74407  0.06967  1.0000
  C   C20       1.0  0.12642  0.75593  0.93033  1.0000
  C   C21       1.0  0.37468  0.24214  0.56196  1.0000
  C   C22       1.0  0.87471  0.25787  0.43803  1.0000
  C   C23       1.0  0.62525  0.74395  0.93899  1.0000
  C   C24       1.0  0.12526  0.75604  0.06102  1.0000
  C   C25       1.0  0.43937  0.13858  0.62557  1.0000
  C   C26       1.0  0.93944  0.36141  0.37442  1.0000
  C   C27       1.0  0.56049  0.64056  0.87512  1.0000
  C   C28       1.0  0.06048  0.85943  0.12489  1.0000
  C   C29       1.0  0.31203  0.34699  0.62476  1.0000
  C   C30       1.0  0.81205  0.15303  0.37524  1.0000
  C   C31       1.0  0.68847  0.84827  0.87566  1.0000
  C   C32       1.0  0.18849  0.65173  0.12435  1.0000
  C   C33       1.0  0.44067  0.14475  0.74820  1.0000
  C   C34       1.0  0.94075  0.35525  0.25181  1.0000
  C   C35       1.0  0.55968  0.64618  0.75239  1.0000
  C   C36       1.0  0.05968  0.85381  0.24764  1.0000
  C   C37       1.0  0.31334  0.34334  0.74728  1.0000
  C   C38       1.0  0.81342  0.15665  0.25273  1.0000
  C   C39       1.0  0.68735  0.84446  0.75304  1.0000
  C   C40       1.0  0.18738  0.65554  0.24698  1.0000
  N   N1        1.0  0.37175  0.24461  0.18588  1.0000
  N   N2        1.0  0.87184  0.25539  0.81411  1.0000
  N   N3        1.0  0.62783  0.74582  0.31631  1.0000
  N   N4        1.0  0.12782  0.75419  0.68367  1.0000
  N   N5        1.0  0.37750  0.24455  0.80792  1.0000
  N   N6        1.0  0.87759  0.25545  0.19208  1.0000
  N   N7        1.0  0.62309  0.74575  0.69216  1.0000
  N   N8        1.0  0.12311  0.75425  0.30785  1.0000
  F   F1        1.0  0.35156  0.42111  0.99602  1.0000
  F   F2        1.0  0.85156  0.07893  0.00398  1.0000
  F   F3        1.0  0.66653  0.91906  0.50561  1.0000
  F   F4        1.0  0.16646  0.58093  0.49438  1.0000
  F   F5        1.0  0.39791  0.07278  0.99657  1.0000
  F   F6        1.0  0.89790  0.42718  0.00343  1.0000
  F   F7        1.0  0.58476  0.57581  0.50503  1.0000
  F   F8        1.0  0.08482  0.92420  0.49494  1.0000
  F   F9        1.0  0.62447  0.27348  0.00281  1.0000
  F   F10       1.0  0.12448  0.22653  0.99719  1.0000
  F   F11       1.0  0.37599  0.79270  0.49733  1.0000
  F   F12       1.0  0.87594  0.70730  0.50271  1.0000
