data_image0
_chemical_formula_structural       Ag4H24C12S4N4O20
_chemical_formula_sum              "Ag4 H24 C12 S4 N4 O20"
_cell_length_a       8.24927
_cell_length_b       9.16495
_cell_length_c       9.64768
_cell_angle_alpha    89.9999
_cell_angle_beta     89.9999
_cell_angle_gamma    98.6091

_space_group_name_H-M_alt    "P 1"
_space_group_IT_number       1

loop_
  _space_group_symop_operation_xyz
  'x, y, z'

loop_
  _atom_site_type_symbol
  _atom_site_label
  _atom_site_symmetry_multiplicity
  _atom_site_fract_x
  _atom_site_fract_y
  _atom_site_fract_z
  _atom_site_occupancy
  Ag  Ag1       1.0  0.76774  0.81509  0.08369  1.0000
  Ag  Ag2       1.0  0.23227  0.18492  0.58369  1.0000
  Ag  Ag3       1.0  0.38757  0.39215  0.76942  1.0000
  Ag  Ag4       1.0  0.61244  0.60786  0.26942  1.0000
  H   H1        1.0  0.56889  0.03527  0.65853  1.0000
  H   H2        1.0  0.43112  0.96473  0.15853  1.0000
  H   H3        1.0  0.77438  0.06314  0.63365  1.0000
  H   H4        1.0  0.22562  0.93686  0.13364  1.0000
  H   H5        1.0  0.66016  0.90340  0.58159  1.0000
  H   H6        1.0  0.33984  0.09661  0.08159  1.0000
  H   H7        1.0  0.04331  0.66127  0.24523  1.0000
  H   H8        1.0  0.95669  0.33873  0.74524  1.0000
  H   H9        1.0  0.95569  0.51649  0.34405  1.0000
  H   H10       1.0  0.04431  0.48351  0.84406  1.0000
  H   H11       1.0  0.12476  0.50334  0.24609  1.0000
  H   H12       1.0  0.87524  0.49666  0.74610  1.0000
  H   H13       1.0  0.73097  0.23938  0.30425  1.0000
  H   H14       1.0  0.26904  0.76062  0.80425  1.0000
  H   H15       1.0  0.86899  0.21407  0.44192  1.0000
  H   H16       1.0  0.13101  0.78593  0.94192  1.0000
  H   H17       1.0  0.50290  0.08393  0.44360  1.0000
  H   H18       1.0  0.49710  0.91608  0.94360  1.0000
  H   H19       1.0  0.15891  0.79262  0.58847  1.0000
  H   H20       1.0  0.84109  0.20738  0.08847  1.0000
  H   H21       1.0  0.96170  0.71872  0.51853  1.0000
  H   H22       1.0  0.03830  0.28128  0.01853  1.0000
  H   H23       1.0  0.29044  0.67836  0.38319  1.0000
  H   H24       1.0  0.70956  0.32163  0.88319  1.0000
  C   C1        1.0  0.74003  0.21496  0.41501  1.0000
  C   C2        1.0  0.25997  0.78504  0.91501  1.0000
  C   C3        1.0  0.63296  0.06993  0.44919  1.0000
  C   C4        1.0  0.36704  0.93008  0.94918  1.0000
  C   C5        1.0  0.64750  0.94245  0.34821  1.0000
  C   C6        1.0  0.35251  0.05755  0.84821  1.0000
  C   C7        1.0  0.09136  0.75517  0.49401  1.0000
  C   C8        1.0  0.90864  0.24483  0.99401  1.0000
  C   C9        1.0  0.16923  0.63305  0.42515  1.0000
  C   C10       1.0  0.83077  0.36695  0.92515  1.0000
  C   C11       1.0  0.19593  0.50737  0.52396  1.0000
  C   C12       1.0  0.80405  0.49263  0.02396  1.0000
  S   S1        1.0  0.67271  0.36850  0.50305  1.0000
  S   S2        1.0  0.32729  0.63150  0.00305  1.0000
  S   S3        1.0  0.09997  0.91614  0.38618  1.0000
  S   S4        1.0  0.90004  0.08386  0.88619  1.0000
  N   N1        1.0  0.66196  0.01640  0.59197  1.0000
  N   N2        1.0  0.33805  0.98361  0.09197  1.0000
  N   N3        1.0  0.06581  0.57208  0.30539  1.0000
  N   N4        1.0  0.93419  0.42792  0.80540  1.0000
  O   O1        1.0  0.52484  0.39986  0.43064  1.0000
  O   O2        1.0  0.47517  0.60014  0.93064  1.0000
  O   O3        1.0  0.64055  0.32122  0.64843  1.0000
  O   O4        1.0  0.35945  0.67878  0.14843  1.0000
  O   O5        1.0  0.81202  0.49029  0.49341  1.0000
  O   O6        1.0  0.18798  0.50971  0.99342  1.0000
  O   O7        1.0  0.65457  0.97446  0.21969  1.0000
  O   O8        1.0  0.34544  0.02554  0.71968  1.0000
  O   O9        1.0  0.64151  0.81607  0.40241  1.0000
  O   O10       1.0  0.35849  0.18392  0.90241  1.0000
  O   O11       1.0  0.04736  0.86115  0.24511  1.0000
  O   O12       1.0  0.95264  0.13885  0.74511  1.0000
  O   O13       1.0  0.98913  0.00705  0.44974  1.0000
  O   O14       1.0  0.01087  0.99295  0.94974  1.0000
  O   O15       1.0  0.27226  0.98717  0.38429  1.0000
  O   O16       1.0  0.72775  0.01283  0.88429  1.0000
  O   O17       1.0  0.25704  0.54766  0.64062  1.0000
  O   O18       1.0  0.74294  0.45234  0.14062  1.0000
  O   O19       1.0  0.15798  0.37797  0.47638  1.0000
  O   O20       1.0  0.84202  0.62203  0.97638  1.0000
