data_image0
_chemical_formula_structural       Ag4H24C12S4N4O20
_chemical_formula_sum              "Ag4 H24 C12 S4 N4 O20"
_cell_length_a       5.4043
_cell_length_b       7.60637
_cell_length_c       16.8397
_cell_angle_alpha    90.0016
_cell_angle_beta     93.0017
_cell_angle_gamma    90.0002

_space_group_name_H-M_alt    "P 1"
_space_group_IT_number       1

loop_
  _space_group_symop_operation_xyz
  'x, y, z'

loop_
  _atom_site_type_symbol
  _atom_site_label
  _atom_site_symmetry_multiplicity
  _atom_site_fract_x
  _atom_site_fract_y
  _atom_site_fract_z
  _atom_site_occupancy
  Ag  Ag1       1.0  0.26902  0.39043  0.79493  1.0000
  Ag  Ag2       1.0  0.73097  0.89043  0.20507  1.0000
  Ag  Ag3       1.0  0.70574  0.42004  0.71458  1.0000
  Ag  Ag4       1.0  0.29429  0.92007  0.28543  1.0000
  H   H1        1.0  0.34715  0.07002  0.49901  1.0000
  H   H2        1.0  0.65284  0.57002  0.50098  1.0000
  H   H3        1.0  0.33682  0.84841  0.50876  1.0000
  H   H4        1.0  0.66319  0.34841  0.49123  1.0000
  H   H5        1.0  0.57275  0.96511  0.55226  1.0000
  H   H6        1.0  0.42725  0.46511  0.44774  1.0000
  H   H7        1.0  0.37511  0.81085  0.95952  1.0000
  H   H8        1.0  0.62489  0.31083  0.04049  1.0000
  H   H9        1.0  0.54882  0.99099  0.98512  1.0000
  H   H10       1.0  0.45121  0.49099  0.01489  1.0000
  H   H11       1.0  0.66935  0.79125  0.99065  1.0000
  H   H12       1.0  0.33067  0.29125  0.00935  1.0000
  H   H13       1.0  0.93250  0.97864  0.80788  1.0000
  H   H14       1.0  0.06747  0.47865  0.19212  1.0000
  H   H15       1.0  0.01296  0.86077  0.89706  1.0000
  H   H16       1.0  0.98704  0.36078  0.10294  1.0000
  H   H17       1.0  0.49079  0.99544  0.84616  1.0000
  H   H18       1.0  0.50921  0.49545  0.15384  1.0000
  H   H19       1.0  0.10782  0.81439  0.70409  1.0000
  H   H20       1.0  0.89220  0.31439  0.29590  1.0000
  H   H21       1.0  0.39558  0.74351  0.66562  1.0000
  H   H22       1.0  0.60444  0.24351  0.33438  1.0000
  H   H23       1.0  0.05062  0.02733  0.58896  1.0000
  H   H24       1.0  0.94938  0.52734  0.41104  1.0000
  C   C1        1.0  0.34423  0.11876  0.66724  1.0000
  C   C2        1.0  0.65578  0.61876  0.33275  1.0000
  C   C3        1.0  0.57294  0.72319  0.82713  1.0000
  C   C4        1.0  0.42707  0.22320  0.17287  1.0000
  C   C5        1.0  0.88555  0.95849  0.86978  1.0000
  C   C6        1.0  0.11444  0.45850  0.13022  1.0000
  C   C7        1.0  0.61895  0.89677  0.87287  1.0000
  C   C8        1.0  0.38104  0.39677  0.12713  1.0000
  C   C9        1.0  0.21278  0.80138  0.65041  1.0000
  C   C10       1.0  0.78723  0.30139  0.34958  1.0000
  C   C11       1.0  0.23488  0.97949  0.60978  1.0000
  C   C12       1.0  0.76512  0.47950  0.39022  1.0000
  S   S1        1.0  0.94672  0.16606  0.91803  1.0000
  S   S2        1.0  0.05328  0.66607  0.08197  1.0000
  S   S3        1.0  0.04828  0.64452  0.58842  1.0000
  S   S4        1.0  0.95172  0.14453  0.41158  1.0000
  N   N1        1.0  0.38504  0.96543  0.53804  1.0000
  N   N2        1.0  0.61497  0.46543  0.46196  1.0000
  N   N3        1.0  0.54705  0.87149  0.95642  1.0000
  N   N4        1.0  0.45296  0.37149  0.04359  1.0000
  O   O1        1.0  0.18154  0.63767  0.51401  1.0000
  O   O2        1.0  0.81845  0.13769  0.48599  1.0000
  O   O3        1.0  0.79302  0.71333  0.57512  1.0000
  O   O4        1.0  0.20698  0.21334  0.42488  1.0000
  O   O5        1.0  0.38658  0.63753  0.84908  1.0000
  O   O6        1.0  0.61336  0.13752  0.15092  1.0000
  O   O7        1.0  0.83722  0.30436  0.86675  1.0000
  O   O8        1.0  0.16276  0.80437  0.13325  1.0000
  O   O9        1.0  0.83880  0.15725  0.99680  1.0000
  O   O10       1.0  0.16123  0.65725  0.00321  1.0000
  O   O11       1.0  0.05820  0.47610  0.63130  1.0000
  O   O12       1.0  0.94181  0.97611  0.36870  1.0000
  O   O13       1.0  0.22307  0.14184  0.72904  1.0000
  O   O14       1.0  0.77691  0.64183  0.27095  1.0000
  O   O15       1.0  0.71683  0.68757  0.77273  1.0000
  O   O16       1.0  0.28316  0.18760  0.22729  1.0000
  O   O17       1.0  0.22118  0.17573  0.92636  1.0000
  O   O18       1.0  0.77883  0.67574  0.07363  1.0000
  O   O19       1.0  0.53886  0.19536  0.64706  1.0000
  O   O20       1.0  0.46114  0.69538  0.35294  1.0000
