data_image0
_chemical_formula_structural       Cd2H18C24N6O8
_chemical_formula_sum              "Cd2 H18 C24 N6 O8"
_cell_length_a       7.80891
_cell_length_b       8.71236
_cell_length_c       8.77669
_cell_angle_alpha    84.7413
_cell_angle_beta     88.8499
_cell_angle_gamma    88.0274

_space_group_name_H-M_alt    "P 1"
_space_group_IT_number       1

loop_
  _space_group_symop_operation_xyz
  'x, y, z'

loop_
  _atom_site_type_symbol
  _atom_site_label
  _atom_site_symmetry_multiplicity
  _atom_site_fract_x
  _atom_site_fract_y
  _atom_site_fract_z
  _atom_site_occupancy
  Cd  Cd1       1.0  0.25372  0.38085  0.57226  1.0000
  Cd  Cd2       1.0  0.74628  0.61915  0.42774  1.0000
  H   H1        1.0  0.15300  0.16132  0.87864  1.0000
  H   H2        1.0  0.84699  0.83868  0.12136  1.0000
  H   H3        1.0  0.11123  0.88213  0.96810  1.0000
  H   H4        1.0  0.88876  0.11786  0.03190  1.0000
  H   H5        1.0  0.14916  0.68538  0.77395  1.0000
  H   H6        1.0  0.85083  0.31462  0.22604  1.0000
  H   H7        1.0  0.22668  0.77450  0.50544  1.0000
  H   H8        1.0  0.77332  0.22550  0.49456  1.0000
  H   H9        1.0  0.37230  0.88303  0.25737  1.0000
  H   H10       1.0  0.62771  0.11697  0.74263  1.0000
  H   H11       1.0  0.44041  0.13118  0.04611  1.0000
  H   H12       1.0  0.55959  0.86882  0.95389  1.0000
  H   H13       1.0  0.42671  0.40019  0.04355  1.0000
  H   H14       1.0  0.57329  0.59981  0.95645  1.0000
  H   H15       1.0  0.11837  0.43599  0.04618  1.0000
  H   H16       1.0  0.88163  0.56401  0.95382  1.0000
  H   H17       1.0  0.22271  0.61005  0.05391  1.0000
  H   H18       1.0  0.77729  0.38995  0.94609  1.0000
  C   C1        1.0  0.16766  0.07086  0.80072  1.0000
  C   C2        1.0  0.83233  0.92914  0.19928  1.0000
  C   C3        1.0  0.14397  0.91607  0.84879  1.0000
  C   C4        1.0  0.85602  0.08393  0.15121  1.0000
  C   C5        1.0  0.16561  0.80778  0.74168  1.0000
  C   C6        1.0  0.83439  0.19222  0.25832  1.0000
  C   C7        1.0  0.21047  0.85697  0.59108  1.0000
  C   C8        1.0  0.78953  0.14303  0.40891  1.0000
  C   C9        1.0  0.23422  0.01403  0.55212  1.0000
  C   C10       1.0  0.76579  0.98597  0.44788  1.0000
  C   C11       1.0  0.28680  0.07667  0.39848  1.0000
  C   C12       1.0  0.71320  0.92333  0.60152  1.0000
  C   C13       1.0  0.35061  0.00518  0.26958  1.0000
  C   C14       1.0  0.64940  0.99481  0.73042  1.0000
  C   C15       1.0  0.38796  0.12687  0.16178  1.0000
  C   C16       1.0  0.61204  0.87313  0.83822  1.0000
  C   C17       1.0  0.48614  0.51392  0.24058  1.0000
  C   C18       1.0  0.51386  0.48608  0.75942  1.0000
  C   C19       1.0  0.36481  0.41703  0.15511  1.0000
  C   C20       1.0  0.63519  0.58297  0.84489  1.0000
  C   C21       1.0  0.19309  0.50095  0.12123  1.0000
  C   C22       1.0  0.80691  0.49905  0.87877  1.0000
  C   C23       1.0  0.08317  0.54466  0.25713  1.0000
  C   C24       1.0  0.91683  0.45534  0.74287  1.0000
  N   N1        1.0  0.21213  0.11845  0.65662  1.0000
  N   N2        1.0  0.78786  0.88155  0.34338  1.0000
  N   N3        1.0  0.28443  0.23115  0.36840  1.0000
  N   N4        1.0  0.71558  0.76885  0.63160  1.0000
  N   N5        1.0  0.34647  0.26019  0.22568  1.0000
  N   N6        1.0  0.65353  0.73981  0.77432  1.0000
  O   O1        1.0  0.56223  0.44764  0.35750  1.0000
  O   O2        1.0  0.43777  0.55236  0.64250  1.0000
  O   O3        1.0  0.50737  0.65034  0.18458  1.0000
  O   O4        1.0  0.49263  0.34966  0.81542  1.0000
  O   O5        1.0  0.15036  0.56785  0.38286  1.0000
  O   O6        1.0  0.84965  0.43215  0.61714  1.0000
  O   O7        1.0  0.92326  0.56183  0.22978  1.0000
  O   O8        1.0  0.07673  0.43816  0.77022  1.0000
