data_image0
_chemical_formula_structural       Cu2H36C24N4O8
_chemical_formula_sum              "Cu2 H36 C24 N4 O8"
_cell_length_a       6.61093
_cell_length_b       8.983
_cell_length_c       10.5921
_cell_angle_alpha    89.9997
_cell_angle_beta     89.9998
_cell_angle_gamma    89.8245

_space_group_name_H-M_alt    "P 1"
_space_group_IT_number       1

loop_
  _space_group_symop_operation_xyz
  'x, y, z'

loop_
  _atom_site_type_symbol
  _atom_site_label
  _atom_site_symmetry_multiplicity
  _atom_site_fract_x
  _atom_site_fract_y
  _atom_site_fract_z
  _atom_site_occupancy
  Cu  Cu1       1.0  1.00000  0.00001  0.49999  1.0000
  Cu  Cu2       1.0  0.50000  0.00000  0.00000  1.0000
  H   H1        1.0  0.12156  0.34475  0.68689  1.0000
  H   H2        1.0  0.37845  0.65524  0.18687  1.0000
  H   H3        1.0  0.87844  0.65525  0.31311  1.0000
  H   H4        1.0  0.62155  0.34475  0.81312  1.0000
  H   H5        1.0  0.62528  0.26888  0.25014  1.0000
  H   H6        1.0  0.87472  0.73113  0.75015  1.0000
  H   H7        1.0  0.37472  0.73113  0.74986  1.0000
  H   H8        1.0  0.12528  0.26887  0.24986  1.0000
  H   H9        1.0  0.81654  0.23601  0.36158  1.0000
  H   H10       1.0  0.68346  0.76399  0.86159  1.0000
  H   H11       1.0  0.18346  0.76399  0.63842  1.0000
  H   H12       1.0  0.31654  0.23601  0.13843  1.0000
  H   H13       1.0  0.58133  0.14391  0.37675  1.0000
  H   H14       1.0  0.91868  0.85608  0.87676  1.0000
  H   H15       1.0  0.41867  0.85608  0.62325  1.0000
  H   H16       1.0  0.08133  0.14391  0.12326  1.0000
  H   H17       1.0  0.32475  0.90204  0.39083  1.0000
  H   H18       1.0  0.17525  0.09797  0.89085  1.0000
  H   H19       1.0  0.67525  0.09796  0.60916  1.0000
  H   H20       1.0  0.82475  0.90205  0.10916  1.0000
  H   H21       1.0  0.19745  0.50827  0.76606  1.0000
  H   H22       1.0  0.30257  0.49172  0.26605  1.0000
  H   H23       1.0  0.80257  0.49172  0.23394  1.0000
  H   H24       1.0  0.69743  0.50828  0.73395  1.0000
  H   H25       1.0  0.13987  0.90627  0.28436  1.0000
  H   H26       1.0  0.36013  0.09375  0.78436  1.0000
  H   H27       1.0  0.86014  0.09374  0.71564  1.0000
  H   H28       1.0  0.63987  0.90626  0.21564  1.0000
  H   H29       1.0  0.02476  0.52130  0.63997  1.0000
  H   H30       1.0  0.47525  0.47870  0.13997  1.0000
  H   H31       1.0  0.97525  0.47870  0.36003  1.0000
  H   H32       1.0  0.52475  0.52130  0.86004  1.0000
  H   H33       1.0  0.14517  0.77609  0.39361  1.0000
  H   H34       1.0  0.35483  0.22393  0.89361  1.0000
  H   H35       1.0  0.85482  0.22392  0.60640  1.0000
  H   H36       1.0  0.64518  0.77608  0.10639  1.0000
  C   C1        1.0  0.41079  0.36103  0.51225  1.0000
  C   C2        1.0  0.08921  0.63897  0.01226  1.0000
  C   C3        1.0  0.58922  0.63897  0.48774  1.0000
  C   C4        1.0  0.91079  0.36102  0.98775  1.0000
  C   C5        1.0  0.33366  0.48146  0.58216  1.0000
  C   C6        1.0  0.16635  0.51854  0.08216  1.0000
  C   C7        1.0  0.66634  0.51854  0.41784  1.0000
  C   C8        1.0  0.83366  0.48146  0.91785  1.0000
  C   C9        1.0  0.57587  0.37742  0.42988  1.0000
  C   C10       1.0  0.92413  0.62257  0.92988  1.0000
  C   C11       1.0  0.42414  0.62258  0.57013  1.0000
  C   C12       1.0  0.07586  0.37742  0.07013  1.0000
  C   C13       1.0  0.31247  0.21089  0.52837  1.0000
  C   C14       1.0  0.18753  0.78911  0.02838  1.0000
  C   C15       1.0  0.68751  0.78910  0.47161  1.0000
  C   C16       1.0  0.81249  0.21089  0.97163  1.0000
  C   C17       1.0  0.16096  0.46196  0.67282  1.0000
  C   C18       1.0  0.33905  0.53804  0.17282  1.0000
  C   C19       1.0  0.83905  0.53804  0.32718  1.0000
  C   C20       1.0  0.66095  0.46196  0.82719  1.0000
  C   C21       1.0  0.65204  0.24978  0.35141  1.0000
  C   C22       1.0  0.84796  0.75022  0.85142  1.0000
  C   C23       1.0  0.34797  0.75022  0.64858  1.0000
  C   C24       1.0  0.15204  0.24978  0.14859  1.0000
  N   N1        1.0  0.17099  0.88680  0.37829  1.0000
  N   N2        1.0  0.32901  0.11321  0.87830  1.0000
  N   N3        1.0  0.82901  0.11321  0.62171  1.0000
  N   N4        1.0  0.67099  0.88680  0.12171  1.0000
  O   O1        1.0  0.14789  0.19166  0.46534  1.0000
  O   O2        1.0  0.35210  0.80836  0.96535  1.0000
  O   O3        1.0  0.85209  0.80838  0.53464  1.0000
  O   O4        1.0  0.64789  0.19164  0.03466  1.0000
  O   O5        1.0  0.38808  0.11524  0.60173  1.0000
  O   O6        1.0  0.11191  0.88475  0.10174  1.0000
  O   O7        1.0  0.61191  0.88475  0.39823  1.0000
  O   O8        1.0  0.88809  0.11523  0.89826  1.0000
