data_image0
_chemical_formula_structural       Cu4H40C28N4O16
_chemical_formula_sum              "Cu4 H40 C28 N4 O16"
_cell_length_a       8.42369
_cell_length_b       9.7959
_cell_length_c       11.9736
_cell_angle_alpha    90.0205
_cell_angle_beta     90.0089
_cell_angle_gamma    107.683

_space_group_name_H-M_alt    "P 1"
_space_group_IT_number       1

loop_
  _space_group_symop_operation_xyz
  'x, y, z'

loop_
  _atom_site_type_symbol
  _atom_site_label
  _atom_site_symmetry_multiplicity
  _atom_site_fract_x
  _atom_site_fract_y
  _atom_site_fract_z
  _atom_site_occupancy
  Cu  Cu1       1.0  0.98567  0.36396  0.48997  1.0000
  Cu  Cu2       1.0  0.51429  0.13448  0.99020  1.0000
  Cu  Cu3       1.0  0.01435  0.63624  0.51003  1.0000
  Cu  Cu4       1.0  0.48571  0.86551  0.00981  1.0000
  H   H1        1.0  0.81110  0.40349  0.13976  1.0000
  H   H2        1.0  0.68905  0.09659  0.63969  1.0000
  H   H3        1.0  0.18883  0.59655  0.86012  1.0000
  H   H4        1.0  0.31096  0.90343  0.36031  1.0000
  H   H5        1.0  0.84921  0.59591  0.14814  1.0000
  H   H6        1.0  0.65114  0.90421  0.64769  1.0000
  H   H7        1.0  0.15085  0.40414  0.85195  1.0000
  H   H8        1.0  0.34887  0.09581  0.35233  1.0000
  H   H9        1.0  0.66416  0.47517  0.20298  1.0000
  H   H10       1.0  0.83593  0.02498  0.70312  1.0000
  H   H11       1.0  0.33585  0.52486  0.79701  1.0000
  H   H12       1.0  0.16407  0.97505  0.29690  1.0000
  H   H13       1.0  0.44089  0.36978  0.56452  1.0000
  H   H14       1.0  0.06016  0.13015  0.06499  1.0000
  H   H15       1.0  0.55907  0.63023  0.43550  1.0000
  H   H16       1.0  0.93984  0.86985  0.93502  1.0000
  H   H17       1.0  0.51532  0.48852  0.67828  1.0000
  H   H18       1.0  0.98497  0.01139  0.17854  1.0000
  H   H19       1.0  0.48484  0.51154  0.32167  1.0000
  H   H20       1.0  0.01502  0.98861  0.82147  1.0000
  H   H21       1.0  0.51003  0.30393  0.68865  1.0000
  H   H22       1.0  0.99020  0.19599  0.18889  1.0000
  H   H23       1.0  0.48984  0.69607  0.31139  1.0000
  H   H24       1.0  0.00982  0.80402  0.81112  1.0000
  H   H25       1.0  0.19996  0.20856  0.57995  1.0000
  H   H26       1.0  0.30030  0.29153  0.08015  1.0000
  H   H27       1.0  0.80004  0.79138  0.42004  1.0000
  H   H28       1.0  0.69969  0.70848  0.91985  1.0000
  H   H29       1.0  0.62440  0.04309  0.44584  1.0000
  H   H30       1.0  0.87562  0.45683  0.94590  1.0000
  H   H31       1.0  0.37564  0.95689  0.55416  1.0000
  H   H32       1.0  0.12437  0.54318  0.05410  1.0000
  H   H33       1.0  0.66627  0.95142  0.32658  1.0000
  H   H34       1.0  0.83364  0.54840  0.82668  1.0000
  H   H35       1.0  0.33374  0.04856  0.67341  1.0000
  H   H36       1.0  0.16636  0.45161  0.17332  1.0000
  H   H37       1.0  0.75267  0.14252  0.33925  1.0000
  H   H38       1.0  0.74731  0.35729  0.83928  1.0000
  H   H39       1.0  0.24737  0.85745  0.66075  1.0000
  H   H40       1.0  0.25268  0.64272  0.16072  1.0000
  C   C1        1.0  0.87815  0.49557  0.30335  1.0000
  C   C2        1.0  0.62187  0.00433  0.80292  1.0000
  C   C3        1.0  0.12183  0.50438  0.69663  1.0000
  C   C4        1.0  0.37814  0.99569  0.19709  1.0000
  C   C5        1.0  0.79797  0.49258  0.19012  1.0000
  C   C6        1.0  0.70211  0.00744  0.69005  1.0000
  C   C7        1.0  0.20202  0.50740  0.80986  1.0000
  C   C8        1.0  0.29790  0.99259  0.30996  1.0000
  C   C9        1.0  0.70516  0.43513  0.58325  1.0000
  C   C10       1.0  0.79585  0.06499  0.08324  1.0000
  C   C11       1.0  0.29483  0.56482  0.41673  1.0000
  C   C12       1.0  0.20415  0.93502  0.91677  1.0000
  C   C13       1.0  0.53183  0.39675  0.63310  1.0000
  C   C14       1.0  0.96867  0.10318  0.13324  1.0000
  C   C15       1.0  0.46816  0.60322  0.36690  1.0000
  C   C16       1.0  0.03133  0.89682  0.86677  1.0000
  C   C17       1.0  0.86870  0.02139  0.44310  1.0000
  C   C18       1.0  0.63129  0.47851  0.94315  1.0000
  C   C19       1.0  0.13130  0.97856  0.55690  1.0000
  C   C20       1.0  0.36870  0.52151  0.05686  1.0000
  C   C21       1.0  0.11103  0.11418  0.54342  1.0000
  C   C22       1.0  0.38911  0.38586  0.04353  1.0000
  C   C23       1.0  0.88897  0.88577  0.45658  1.0000
  C   C24       1.0  0.61089  0.61416  0.95646  1.0000
  C   C25       1.0  0.72042  0.04037  0.38427  1.0000
  C   C26       1.0  0.77954  0.45948  0.88433  1.0000
  C   C27       1.0  0.27959  0.95960  0.61573  1.0000
  C   C28       1.0  0.22046  0.54053  0.11567  1.0000
  N   N1        1.0  0.98310  0.13617  0.48770  1.0000
  N   N2        1.0  0.51702  0.36382  0.98787  1.0000
  N   N3        1.0  0.01690  0.86379  0.51230  1.0000
  N   N4        1.0  0.48298  0.63619  0.01213  1.0000
  O   O1        1.0  0.89718  0.37823  0.33726  1.0000
  O   O2        1.0  0.60236  0.12142  0.83757  1.0000
  O   O3        1.0  0.10284  0.62173  0.66273  1.0000
  O   O4        1.0  0.39764  0.87859  0.16245  1.0000
  O   O5        1.0  0.75744  0.33105  0.55490  1.0000
  O   O6        1.0  0.74286  0.16874  0.05467  1.0000
  O   O7        1.0  0.24257  0.66891  0.44506  1.0000
  O   O8        1.0  0.25714  0.83126  0.94535  1.0000
  O   O9        1.0  0.91704  0.61424  0.35565  1.0000
  O   O10       1.0  0.58237  0.88586  0.85568  1.0000
  O   O11       1.0  0.08288  0.38570  0.64434  1.0000
  O   O12       1.0  0.41763  0.11416  0.14433  1.0000
  O   O13       1.0  0.78201  0.56833  0.57288  1.0000
  O   O14       1.0  0.71797  0.93188  0.07237  1.0000
  O   O15       1.0  0.21796  0.43162  0.42712  1.0000
  O   O16       1.0  0.28203  0.06813  0.92763  1.0000
