data_image0
_chemical_formula_structural       Nd2H28C36N6O16
_chemical_formula_sum              "Nd2 H28 C36 N6 O16"
_cell_length_a       9.41533
_cell_length_b       9.77376
_cell_length_c       12.3516
_cell_angle_alpha    67.0405
_cell_angle_beta     86.7949
_cell_angle_gamma    81.9234

_space_group_name_H-M_alt    "P 1"
_space_group_IT_number       1

loop_
  _space_group_symop_operation_xyz
  'x, y, z'

loop_
  _atom_site_type_symbol
  _atom_site_label
  _atom_site_symmetry_multiplicity
  _atom_site_fract_x
  _atom_site_fract_y
  _atom_site_fract_z
  _atom_site_occupancy
  Nd  Nd1       1.0  0.68967  0.11513  0.44527  1.0000
  Nd  Nd2       1.0  0.31033  0.88487  0.55473  1.0000
  H   H1        1.0  0.67942  0.45151  0.41713  1.0000
  H   H2        1.0  0.32058  0.54849  0.58287  1.0000
  H   H3        1.0  0.62096  0.45831  0.29567  1.0000
  H   H4        1.0  0.37904  0.54170  0.70432  1.0000
  H   H5        1.0  0.67133  0.84705  0.67978  1.0000
  H   H6        1.0  0.32867  0.15295  0.32022  1.0000
  H   H7        1.0  0.80169  0.93908  0.67754  1.0000
  H   H8        1.0  0.19831  0.06092  0.32246  1.0000
  H   H9        1.0  0.48517  0.97924  0.13850  1.0000
  H   H10       1.0  0.51483  0.02076  0.86150  1.0000
  H   H11       1.0  0.67954  0.00028  0.98523  1.0000
  H   H12       1.0  0.32047  0.99972  0.01478  1.0000
  H   H13       1.0  0.92762  0.87747  0.05321  1.0000
  H   H14       1.0  0.07238  0.12253  0.94680  1.0000
  H   H15       1.0  0.71912  0.36070  0.62899  1.0000
  H   H16       1.0  0.28089  0.63930  0.37101  1.0000
  H   H17       1.0  0.90463  0.40051  0.74919  1.0000
  H   H18       1.0  0.09538  0.59949  0.25080  1.0000
  H   H19       1.0  0.03013  0.63067  0.65817  1.0000
  H   H20       1.0  0.96988  0.36933  0.34183  1.0000
  H   H21       1.0  0.29934  0.32103  0.11954  1.0000
  H   H22       1.0  0.70065  0.67897  0.88046  1.0000
  H   H23       1.0  0.22385  0.43614  0.90695  1.0000
  H   H24       1.0  0.77614  0.56386  0.09305  1.0000
  H   H25       1.0  0.64246  0.39818  0.79299  1.0000
  H   H26       1.0  0.35753  0.60181  0.20701  1.0000
  H   H27       1.0  0.73640  0.28240  0.00174  1.0000
  H   H28       1.0  0.26359  0.71759  0.99826  1.0000
  C   C1        1.0  0.52152  0.85337  0.37319  1.0000
  C   C2        1.0  0.47849  0.14662  0.62681  1.0000
  C   C3        1.0  0.62914  0.84664  0.28126  1.0000
  C   C4        1.0  0.37086  0.15336  0.71874  1.0000
  C   C5        1.0  0.59425  0.92438  0.16268  1.0000
  C   C6        1.0  0.40575  0.07562  0.83733  1.0000
  C   C7        1.0  0.70132  0.93613  0.07834  1.0000
  C   C8        1.0  0.29869  0.06387  0.92167  1.0000
  C   C9        1.0  0.83961  0.86760  0.11649  1.0000
  C   C10       1.0  0.16040  0.13240  0.88352  1.0000
  C   C11       1.0  0.77029  0.77537  0.31077  1.0000
  C   C12       1.0  0.22971  0.22462  0.68923  1.0000
  C   C13       1.0  0.80892  0.67770  0.43552  1.0000
  C   C14       1.0  0.19109  0.32230  0.56448  1.0000
  C   C15       1.0  0.77476  0.46003  0.59515  1.0000
  C   C16       1.0  0.22526  0.53997  0.40485  1.0000
  C   C17       1.0  0.87656  0.48325  0.66161  1.0000
  C   C18       1.0  0.12345  0.51675  0.33839  1.0000
  C   C19       1.0  0.94745  0.60890  0.61080  1.0000
  C   C20       1.0  0.05255  0.39111  0.38920  1.0000
  C   C21       1.0  0.91151  0.71037  0.49674  1.0000
  C   C22       1.0  0.08850  0.28963  0.50326  1.0000
  C   C23       1.0  0.97734  0.85344  0.44692  1.0000
  C   C24       1.0  0.02266  0.14657  0.55308  1.0000
  C   C25       1.0  0.57852  0.23521  0.20016  1.0000
  C   C26       1.0  0.42147  0.76479  0.79985  1.0000
  C   C27       1.0  0.52465  0.29343  0.07580  1.0000
  C   C28       1.0  0.47534  0.70657  0.92420  1.0000
  C   C29       1.0  0.37838  0.33422  0.04945  1.0000
  C   C30       1.0  0.62161  0.66578  0.95055  1.0000
  C   C31       1.0  0.33639  0.39804  0.93182  1.0000
  C   C32       1.0  0.66359  0.60196  0.06818  1.0000
  C   C33       1.0  0.57021  0.37710  0.86816  1.0000
  C   C34       1.0  0.42978  0.62289  0.13184  1.0000
  C   C35       1.0  0.62204  0.31353  0.98280  1.0000
  C   C36       1.0  0.37795  0.68647  0.01719  1.0000
  N   N1        1.0  0.87374  0.78665  0.22956  1.0000
  N   N2        1.0  0.12627  0.21335  0.77044  1.0000
  N   N3        1.0  0.74270  0.55406  0.48408  1.0000
  N   N4        1.0  0.25731  0.44594  0.51592  1.0000
  N   N5        1.0  0.43019  0.42097  0.84267  1.0000
  N   N6        1.0  0.56980  0.57904  0.15733  1.0000
  O   O1        1.0  0.55994  0.89804  0.45155  1.0000
  O   O2        1.0  0.44006  0.10195  0.54846  1.0000
  O   O3        1.0  0.39637  0.82347  0.37035  1.0000
  O   O4        1.0  0.60363  0.17653  0.62965  1.0000
  O   O5        1.0  0.89625  0.97459  0.39333  1.0000
  O   O6        1.0  0.10375  0.02542  0.60667  1.0000
  O   O7        1.0  0.11066  0.84341  0.46379  1.0000
  O   O8        1.0  0.88935  0.15660  0.53620  1.0000
  O   O9        1.0  0.71223  0.21466  0.21862  1.0000
  O   O10       1.0  0.28776  0.78534  0.78138  1.0000
  O   O11       1.0  0.48725  0.20976  0.28442  1.0000
  O   O12       1.0  0.51274  0.79023  0.71558  1.0000
  O   O13       1.0  0.65508  0.38603  0.37634  1.0000
  O   O14       1.0  0.34492  0.61398  0.62365  1.0000
  O   O15       1.0  0.75623  0.89192  0.63463  1.0000
  O   O16       1.0  0.24377  0.10808  0.36537  1.0000
