data_image0
_chemical_formula_structural       CuH20C22N4O6
_chemical_formula_sum              "Cu1 H20 C22 N4 O6"
_cell_length_a       5.00572
_cell_length_b       8.80501
_cell_length_c       12.7662
_cell_angle_alpha    102.234
_cell_angle_beta     100.635
_cell_angle_gamma    105.393

_space_group_name_H-M_alt    "P 1"
_space_group_IT_number       1

loop_
  _space_group_symop_operation_xyz
  'x, y, z'

loop_
  _atom_site_type_symbol
  _atom_site_label
  _atom_site_symmetry_multiplicity
  _atom_site_fract_x
  _atom_site_fract_y
  _atom_site_fract_z
  _atom_site_occupancy
  Cu  Cu1       1.0  1.00000  0.50000  1.00000  1.0000
  H   H1        1.0  0.31012  0.83720  0.13471  1.0000
  H   H2        1.0  0.68988  0.16281  0.86529  1.0000
  H   H3        1.0  0.30483  0.02352  0.31448  1.0000
  H   H4        1.0  0.69515  0.97648  0.68552  1.0000
  H   H5        1.0  0.92518  0.93043  0.40795  1.0000
  H   H6        1.0  0.07481  0.06957  0.59206  1.0000
  H   H7        1.0  0.58262  0.48289  0.14095  1.0000
  H   H8        1.0  0.41738  0.51711  0.85905  1.0000
  H   H9        1.0  0.36175  0.51751  0.27754  1.0000
  H   H10       1.0  0.63825  0.48249  0.72246  1.0000
  H   H11       1.0  0.20335  0.80181  0.57602  1.0000
  H   H12       1.0  0.79666  0.19819  0.42398  1.0000
  H   H13       1.0  0.18154  0.35391  0.35393  1.0000
  H   H14       1.0  0.81846  0.64608  0.64606  1.0000
  H   H15       1.0  0.67519  0.00968  0.08313  1.0000
  H   H16       1.0  0.32482  0.99032  0.91687  1.0000
  H   H17       1.0  0.50137  0.14087  0.14803  1.0000
  H   H18       1.0  0.49864  0.85913  0.85198  1.0000
  H   H19       1.0  0.81566  0.11467  0.22639  1.0000
  H   H20       1.0  0.18435  0.88533  0.77361  1.0000
  C   C1        1.0  0.14640  0.80340  0.17833  1.0000
  C   C2        1.0  0.85359  0.19660  0.82167  1.0000
  C   C3        1.0  0.14061  0.90488  0.27666  1.0000
  C   C4        1.0  0.85938  0.09512  0.72334  1.0000
  C   C5        1.0  0.92869  0.85383  0.33000  1.0000
  C   C6        1.0  0.07131  0.14617  0.67000  1.0000
  C   C7        1.0  0.72161  0.69884  0.28166  1.0000
  C   C8        1.0  0.27838  0.30116  0.71834  1.0000
  C   C9        1.0  0.73878  0.60382  0.18105  1.0000
  C   C10       1.0  0.26122  0.39618  0.81895  1.0000
  C   C11       1.0  0.45680  0.69513  0.42718  1.0000
  C   C12       1.0  0.54321  0.30487  0.57282  1.0000
  C   C13       1.0  0.21792  0.58995  0.46086  1.0000
  C   C14       1.0  0.78208  0.41005  0.53914  1.0000
  C   C15       1.0  0.11416  0.66900  0.54407  1.0000
  C   C16       1.0  0.88585  0.33099  0.45593  1.0000
  C   C17       1.0  0.10177  0.41933  0.41715  1.0000
  C   C18       1.0  0.89824  0.58067  0.58284  1.0000
  C   C19       1.0  0.89531  0.26568  0.11520  1.0000
  C   C20       1.0  0.10470  0.73432  0.88480  1.0000
  C   C21       1.0  0.71061  0.12463  0.14619  1.0000
  C   C22       1.0  0.28941  0.87538  0.85382  1.0000
  N   N1        1.0  0.94803  0.65426  0.13195  1.0000
  N   N2        1.0  0.05196  0.34574  0.86805  1.0000
  N   N3        1.0  0.50288  0.62864  0.32714  1.0000
  N   N4        1.0  0.49712  0.37136  0.67286  1.0000
  O   O1        1.0  0.60192  0.83341  0.48812  1.0000
  O   O2        1.0  0.39807  0.16658  0.51189  1.0000
  O   O3        1.0  0.76281  0.31048  0.03595  1.0000
  O   O4        1.0  0.23718  0.68952  0.96405  1.0000
  O   O5        1.0  0.15696  0.33166  0.16361  1.0000
  O   O6        1.0  0.84304  0.66834  0.83638  1.0000
