data_image0
_chemical_formula_structural       H20Pb2C28N16O2
_chemical_formula_sum              "H20 Pb2 C28 N16 O2"
_cell_length_a       8.28067
_cell_length_b       9.577
_cell_length_c       10.6504
_cell_angle_alpha    73.2347
_cell_angle_beta     77.1941
_cell_angle_gamma    81.9331

_space_group_name_H-M_alt    "P 1"
_space_group_IT_number       1

loop_
  _space_group_symop_operation_xyz
  'x, y, z'

loop_
  _atom_site_type_symbol
  _atom_site_label
  _atom_site_symmetry_multiplicity
  _atom_site_fract_x
  _atom_site_fract_y
  _atom_site_fract_z
  _atom_site_occupancy
  H   H1        1.0  0.02012  0.41319  0.14639  1.0000
  H   H2        1.0  0.97988  0.58682  0.85361  1.0000
  H   H3        1.0  0.84038  0.45894  0.11681  1.0000
  H   H4        1.0  0.15962  0.54106  0.88319  1.0000
  H   H5        1.0  0.72287  0.04439  0.20161  1.0000
  H   H6        1.0  0.27714  0.95561  0.79838  1.0000
  H   H7        1.0  0.60157  0.14173  0.39946  1.0000
  H   H8        1.0  0.39843  0.85827  0.60053  1.0000
  H   H9        1.0  0.70059  0.01783  0.61718  1.0000
  H   H10       1.0  0.29941  0.98217  0.38282  1.0000
  H   H11       1.0  0.91599  0.81121  0.62290  1.0000
  H   H12       1.0  0.08401  0.18879  0.37709  1.0000
  H   H13       1.0  0.10653  0.65868  0.61484  1.0000
  H   H14       1.0  0.89346  0.34132  0.38516  1.0000
  H   H15       1.0  0.32485  0.46004  0.59967  1.0000
  H   H16       1.0  0.67514  0.53996  0.40033  1.0000
  H   H17       1.0  0.41645  0.38952  0.38068  1.0000
  H   H18       1.0  0.58356  0.61049  0.61932  1.0000
  H   H19       1.0  0.27036  0.52148  0.19219  1.0000
  H   H20       1.0  0.72964  0.47853  0.80780  1.0000
  Pb  Pb1       1.0  0.95590  0.76074  0.09529  1.0000
  Pb  Pb2       1.0  0.04410  0.23926  0.90471  1.0000
  C   C1        1.0  0.76355  0.99669  0.29670  1.0000
  C   C2        1.0  0.23646  0.00331  0.70329  1.0000
  C   C3        1.0  0.69643  0.05017  0.40754  1.0000
  C   C4        1.0  0.30357  0.94984  0.59246  1.0000
  C   C5        1.0  0.75119  0.98171  0.52693  1.0000
  C   C6        1.0  0.24881  0.01829  0.47307  1.0000
  C   C7        1.0  0.87278  0.86517  0.53003  1.0000
  C   C8        1.0  0.12722  0.13482  0.46997  1.0000
  C   C9        1.0  0.93646  0.81857  0.41403  1.0000
  C   C10       1.0  0.06355  0.18143  0.58597  1.0000
  C   C11       1.0  0.06878  0.69698  0.41101  1.0000
  C   C12       1.0  0.93121  0.30301  0.58900  1.0000
  C   C13       1.0  0.14452  0.62861  0.52101  1.0000
  C   C14       1.0  0.85548  0.37138  0.47898  1.0000
  C   C15       1.0  0.26938  0.51609  0.51260  1.0000
  C   C16       1.0  0.73061  0.48391  0.48740  1.0000
  C   C17       1.0  0.31830  0.47566  0.39325  1.0000
  C   C18       1.0  0.68169  0.52435  0.60675  1.0000
  C   C19       1.0  0.23725  0.54798  0.28807  1.0000
  C   C20       1.0  0.76275  0.45202  0.71193  1.0000
  C   C21       1.0  0.68063  0.73053  0.86292  1.0000
  C   C22       1.0  0.31938  0.26947  0.13708  1.0000
  C   C23       1.0  0.40404  0.67716  0.90879  1.0000
  C   C24       1.0  0.59596  0.32283  0.09121  1.0000
  C   C25       1.0  0.52424  0.80810  0.18542  1.0000
  C   C26       1.0  0.47576  0.19190  0.81459  1.0000
  C   C27       1.0  0.29753  0.93022  0.09656  1.0000
  C   C28       1.0  0.70247  0.06977  0.90345  1.0000
  N   N1        1.0  0.11527  0.65465  0.29672  1.0000
  N   N2        1.0  0.88472  0.34535  0.70327  1.0000
  N   N3        1.0  0.87971  0.88379  0.29974  1.0000
  N   N4        1.0  0.12029  0.11621  0.70026  1.0000
  N   N5        1.0  0.64152  0.72375  0.20193  1.0000
  N   N6        1.0  0.35849  0.27624  0.79808  1.0000
  N   N7        1.0  0.39646  0.90263  0.18014  1.0000
  N   N8        1.0  0.60354  0.09736  0.81988  1.0000
  N   N9        1.0  0.19826  0.96339  0.02597  1.0000
  N   N10       1.0  0.80174  0.03661  0.97405  1.0000
  N   N11       1.0  0.82130  0.72918  0.87067  1.0000
  N   N12       1.0  0.17869  0.27083  0.12933  1.0000
  N   N13       1.0  0.53286  0.74327  0.83853  1.0000
  N   N14       1.0  0.46714  0.25673  0.16146  1.0000
  N   N15       1.0  0.27591  0.62621  0.96190  1.0000
  N   N16       1.0  0.72410  0.37378  0.03809  1.0000
  O   O1        1.0  0.92090  0.48200  0.16319  1.0000
  O   O2        1.0  0.07909  0.51800  0.83681  1.0000
