data_image0
_chemical_formula_structural       Cu4H4C16N24O2
_chemical_formula_sum              "Cu4 H4 C16 N24 O2"
_cell_length_a       6.93669
_cell_length_b       8.79981
_cell_length_c       11.3721
_cell_angle_alpha    99.7011
_cell_angle_beta     107.853
_cell_angle_gamma    89.9034

_space_group_name_H-M_alt    "P 1"
_space_group_IT_number       1

loop_
  _space_group_symop_operation_xyz
  'x, y, z'

loop_
  _atom_site_type_symbol
  _atom_site_label
  _atom_site_symmetry_multiplicity
  _atom_site_fract_x
  _atom_site_fract_y
  _atom_site_fract_z
  _atom_site_occupancy
  Cu  Cu1       1.0  1.00000  0.50000  0.00000  1.0000
  Cu  Cu2       1.0  0.00001  1.00000  1.00000  1.0000
  Cu  Cu3       1.0  0.00000  1.00000  0.50000  1.0000
  Cu  Cu4       1.0  0.50000  0.50001  0.50000  1.0000
  H   H1        1.0  0.27542  0.24285  0.06907  1.0000
  H   H2        1.0  0.20635  0.25564  0.93071  1.0000
  H   H3        1.0  0.72458  0.75716  0.93092  1.0000
  H   H4        1.0  0.79364  0.74437  0.06929  1.0000
  C   C1        1.0  0.57364  0.33116  0.87740  1.0000
  C   C2        1.0  0.69611  0.16894  0.12267  1.0000
  C   C3        1.0  0.42636  0.66884  0.12260  1.0000
  C   C4        1.0  0.30389  0.83106  0.87733  1.0000
  C   C5        1.0  0.32085  0.15744  0.73653  1.0000
  C   C6        1.0  0.58305  0.34174  0.26358  1.0000
  C   C7        1.0  0.67915  0.84256  0.26347  1.0000
  C   C8        1.0  0.41696  0.65825  0.73641  1.0000
  C   C9        1.0  0.04108  0.45793  0.26556  1.0000
  C   C10       1.0  0.77670  0.04249  0.73432  1.0000
  C   C11       1.0  0.95892  0.54207  0.73444  1.0000
  C   C12       1.0  0.22329  0.95751  0.26567  1.0000
  C   C13       1.0  0.05414  0.30234  0.41251  1.0000
  C   C14       1.0  0.64195  0.19784  0.58715  1.0000
  C   C15       1.0  0.94587  0.69767  0.58749  1.0000
  C   C16       1.0  0.35806  0.80214  0.41286  1.0000
  N   N1        1.0  0.72524  0.40706  0.92481  1.0000
  N   N2        1.0  0.80073  0.09471  0.07447  1.0000
  N   N3        1.0  0.27478  0.59294  0.07519  1.0000
  N   N4        1.0  0.19926  0.90529  0.92553  1.0000
  N   N5        1.0  0.40133  0.25369  0.83869  1.0000
  N   N6        1.0  0.56173  0.24451  0.16208  1.0000
  N   N7        1.0  0.59867  0.74631  0.16131  1.0000
  N   N8        1.0  0.43828  0.75549  0.83791  1.0000
  N   N9        1.0  0.23290  0.06124  0.65134  1.0000
  N   N10       1.0  0.57937  0.43848  0.34817  1.0000
  N   N11       1.0  0.76711  0.93875  0.34866  1.0000
  N   N12       1.0  0.42063  0.56152  0.65181  1.0000
  N   N13       1.0  0.98094  0.51286  0.17401  1.0000
  N   N14       1.0  0.80744  0.98702  0.82552  1.0000
  N   N15       1.0  0.01906  0.48714  0.82599  1.0000
  N   N16       1.0  0.19254  0.01298  0.17446  1.0000
  N   N17       1.0  0.12044  0.41302  0.37144  1.0000
  N   N18       1.0  0.75127  0.08807  0.62886  1.0000
  N   N19       1.0  0.87954  0.58697  0.62855  1.0000
  N   N20       1.0  0.24871  0.91195  0.37116  1.0000
  N   N21       1.0  0.00615  0.20861  0.46225  1.0000
  N   N22       1.0  0.54268  0.29074  0.53672  1.0000
  N   N23       1.0  0.99386  0.79140  0.53776  1.0000
  N   N24       1.0  0.45735  0.70924  0.46328  1.0000
  O   O1        1.0  0.15075  0.24935  0.99978  1.0000
  O   O2        1.0  0.84925  0.75065  0.00022  1.0000
