data_image0
_chemical_formula_structural       Ag2H18C22S4N6O10F6
_chemical_formula_sum              "Ag2 H18 C22 S4 N6 O10 F6"
_cell_length_a       8.28466
_cell_length_b       9.00075
_cell_length_c       14.076
_cell_angle_alpha    89.9988
_cell_angle_beta     90.001
_cell_angle_gamma    113.949

_space_group_name_H-M_alt    "P 1"
_space_group_IT_number       1

loop_
  _space_group_symop_operation_xyz
  'x, y, z'

loop_
  _atom_site_type_symbol
  _atom_site_label
  _atom_site_symmetry_multiplicity
  _atom_site_fract_x
  _atom_site_fract_y
  _atom_site_fract_z
  _atom_site_occupancy
  Ag  Ag1       1.0  0.51113  0.14395  0.23708  1.0000
  Ag  Ag2       1.0  0.48887  0.85604  0.73707  1.0000
  H   H1        1.0  0.27825  0.39112  0.16256  1.0000
  H   H2        1.0  0.72176  0.60889  0.66255  1.0000
  H   H3        1.0  0.57336  0.75122  0.93216  1.0000
  H   H4        1.0  0.42664  0.24878  0.43216  1.0000
  H   H5        1.0  0.20955  0.50771  0.72252  1.0000
  H   H6        1.0  0.79046  0.49228  0.22252  1.0000
  H   H7        1.0  0.11698  0.24254  0.80869  1.0000
  H   H8        1.0  0.88302  0.75746  0.30869  1.0000
  H   H9        1.0  0.94923  0.70347  0.09588  1.0000
  H   H10       1.0  0.05078  0.29654  0.59589  1.0000
  H   H11       1.0  0.15604  0.97883  0.14977  1.0000
  H   H12       1.0  0.84396  0.02117  0.64977  1.0000
  H   H13       1.0  0.55603  0.82169  0.20195  1.0000
  H   H14       1.0  0.44398  0.17831  0.70194  1.0000
  H   H15       1.0  0.05269  0.47562  0.09746  1.0000
  H   H16       1.0  0.94732  0.52438  0.59747  1.0000
  H   H17       1.0  0.25497  0.23847  0.96802  1.0000
  H   H18       1.0  0.74503  0.76153  0.46801  1.0000
  C   C1        1.0  0.47036  0.63801  0.90715  1.0000
  C   C2        1.0  0.52964  0.36199  0.40715  1.0000
  C   C3        1.0  0.26802  0.49969  0.79042  1.0000
  C   C4        1.0  0.73199  0.50030  0.29043  1.0000
  C   C5        1.0  0.42135  0.49636  0.96073  1.0000
  C   C6        1.0  0.57864  0.50365  0.46073  1.0000
  C   C7        1.0  0.21451  0.35327  0.83984  1.0000
  C   C8        1.0  0.78549  0.64672  0.33984  1.0000
  C   C9        1.0  0.31255  0.63279  0.14902  1.0000
  C   C10       1.0  0.68746  0.36722  0.64902  1.0000
  C   C11       1.0  0.08210  0.72359  0.11876  1.0000
  C   C12       1.0  0.91791  0.27641  0.61877  1.0000
  C   C13       1.0  0.19651  0.87786  0.14833  1.0000
  C   C14       1.0  0.80349  0.12214  0.64832  1.0000
  C   C15       1.0  0.42084  0.79056  0.17832  1.0000
  C   C16       1.0  0.57917  0.20944  0.67832  1.0000
  C   C17       1.0  0.14002  0.59852  0.11893  1.0000
  C   C18       1.0  0.85999  0.40148  0.61893  1.0000
  C   C19       1.0  0.29223  0.35040  0.92709  1.0000
  C   C20       1.0  0.70777  0.64960  0.42709  1.0000
  C   C21       1.0  0.99503  0.21745  0.35189  1.0000
  C   C22       1.0  0.00497  0.78254  0.85190  1.0000
  S   S1        1.0  0.94688  0.15071  0.22539  1.0000
  S   S2        1.0  0.05311  0.84929  0.72539  1.0000
  S   S3        1.0  0.52277  0.50708  0.07302  1.0000
  S   S4        1.0  0.47723  0.49292  0.57302  1.0000
  N   N1        1.0  0.36262  0.91032  0.17802  1.0000
  N   N2        1.0  0.63739  0.08968  0.67802  1.0000
  N   N3        1.0  0.39476  0.63931  0.82276  1.0000
  N   N4        1.0  0.60523  0.36069  0.32276  1.0000
  N   N5        1.0  0.37609  0.50787  0.15210  1.0000
  N   N6        1.0  0.62391  0.49214  0.65210  1.0000
  O   O1        1.0  0.84563  0.97635  0.23307  1.0000
  O   O2        1.0  0.15436  0.02365  0.73307  1.0000
  O   O3        1.0  0.12436  0.19778  0.18455  1.0000
  O   O4        1.0  0.87564  0.80222  0.68455  1.0000
  O   O5        1.0  0.85285  0.24515  0.18904  1.0000
  O   O6        1.0  0.14714  0.75484  0.68904  1.0000
  O   O7        1.0  0.67185  0.66236  0.07719  1.0000
  O   O8        1.0  0.32816  0.33766  0.57719  1.0000
  O   O9        1.0  0.54361  0.35698  0.08749  1.0000
  O   O10       1.0  0.45640  0.64303  0.58749  1.0000
  F   F1        1.0  0.84251  0.18406  0.40057  1.0000
  F   F2        1.0  0.15749  0.81595  0.90058  1.0000
  F   F3        1.0  0.08381  0.13859  0.39575  1.0000
  F   F4        1.0  0.91617  0.86138  0.89574  1.0000
  F   F5        1.0  0.09497  0.38008  0.35817  1.0000
  F   F6        1.0  0.90504  0.61991  0.85817  1.0000
