data_image0
_chemical_formula_structural       Cd4H8C16S24N16
_chemical_formula_sum              "Cd4 H8 C16 S24 N16"
_cell_length_a       8.00492
_cell_length_b       10.7262
_cell_length_c       13.2032
_cell_angle_alpha    89.9994
_cell_angle_beta     89.9996
_cell_angle_gamma    90.0005

_space_group_name_H-M_alt    "P 1"
_space_group_IT_number       1

loop_
  _space_group_symop_operation_xyz
  'x, y, z'

loop_
  _atom_site_type_symbol
  _atom_site_label
  _atom_site_symmetry_multiplicity
  _atom_site_fract_x
  _atom_site_fract_y
  _atom_site_fract_z
  _atom_site_occupancy
  Cd  Cd1       1.0  0.75002  0.64344  0.50000  1.0000
  Cd  Cd2       1.0  0.25001  0.85656  0.00001  1.0000
  Cd  Cd3       1.0  0.24998  0.35656  0.49999  1.0000
  Cd  Cd4       1.0  0.75000  0.14342  0.00000  1.0000
  H   H1        1.0  0.52666  0.84309  0.17883  1.0000
  H   H2        1.0  0.02666  0.65692  0.32118  1.0000
  H   H3        1.0  0.97337  0.84311  0.82118  1.0000
  H   H4        1.0  0.47337  0.65689  0.67882  1.0000
  H   H5        1.0  0.47334  0.15689  0.82117  1.0000
  H   H6        1.0  0.97334  0.34309  0.67883  1.0000
  H   H7        1.0  0.02664  0.15691  0.17883  1.0000
  H   H8        1.0  0.52666  0.34310  0.32116  1.0000
  C   C1        1.0  0.70856  0.60089  0.25558  1.0000
  C   C2        1.0  0.20858  0.89915  0.24444  1.0000
  C   C3        1.0  0.79146  0.60089  0.74443  1.0000
  C   C4        1.0  0.29146  0.89913  0.75556  1.0000
  C   C5        1.0  0.29145  0.39913  0.74443  1.0000
  C   C6        1.0  0.79143  0.10086  0.75557  1.0000
  C   C7        1.0  0.20855  0.39912  0.25555  1.0000
  C   C8        1.0  0.70854  0.10088  0.24442  1.0000
  C   C9        1.0  0.57487  0.67927  0.09964  1.0000
  C   C10       1.0  0.07488  0.82074  0.40037  1.0000
  C   C11       1.0  0.92514  0.67929  0.90038  1.0000
  C   C12       1.0  0.42514  0.82071  0.59962  1.0000
  C   C13       1.0  0.42512  0.32071  0.90038  1.0000
  C   C14       1.0  0.92510  0.17928  0.59964  1.0000
  C   C15       1.0  0.07486  0.32072  0.09962  1.0000
  C   C16       1.0  0.57486  0.17928  0.40036  1.0000
  S   S1        1.0  0.81236  0.51174  0.34379  1.0000
  S   S2        1.0  0.31236  0.98827  0.15621  1.0000
  S   S3        1.0  0.68768  0.51174  0.65622  1.0000
  S   S4        1.0  0.18768  0.98826  0.84379  1.0000
  S   S5        1.0  0.18766  0.48827  0.65620  1.0000
  S   S6        1.0  0.68765  0.01173  0.84380  1.0000
  S   S7        1.0  0.31234  0.48826  0.34378  1.0000
  S   S8        1.0  0.81233  0.01173  0.15622  1.0000
  S   S9        1.0  0.66973  0.54032  0.13450  1.0000
  S   S10       1.0  0.16974  0.95969  0.36552  1.0000
  S   S11       1.0  0.83027  0.54033  0.86552  1.0000
  S   S12       1.0  0.33028  0.95966  0.63449  1.0000
  S   S13       1.0  0.33029  0.45967  0.86550  1.0000
  S   S14       1.0  0.83024  0.04033  0.63448  1.0000
  S   S15       1.0  0.16972  0.45968  0.13448  1.0000
  S   S16       1.0  0.66971  0.04032  0.36552  1.0000
  S   S17       1.0  0.50371  0.71061  0.98171  1.0000
  S   S18       1.0  0.00372  0.78941  0.51830  1.0000
  S   S19       1.0  0.99628  0.71063  0.01830  1.0000
  S   S20       1.0  0.49627  0.78937  0.48170  1.0000
  S   S21       1.0  0.49626  0.28937  0.01829  1.0000
  S   S22       1.0  0.99623  0.21062  0.48170  1.0000
  S   S23       1.0  0.00369  0.28937  0.98170  1.0000
  S   S24       1.0  0.50369  0.21062  0.51829  1.0000
  N   N1        1.0  0.57734  0.75452  0.18077  1.0000
  N   N2        1.0  0.07736  0.74548  0.31924  1.0000
  N   N3        1.0  0.92267  0.75452  0.81925  1.0000
  N   N4        1.0  0.42266  0.74548  0.68076  1.0000
  N   N5        1.0  0.42265  0.24547  0.81923  1.0000
  N   N6        1.0  0.92265  0.25452  0.68077  1.0000
  N   N7        1.0  0.07734  0.24548  0.18076  1.0000
  N   N8        1.0  0.57734  0.25453  0.31923  1.0000
  N   N9        1.0  0.65008  0.71470  0.26797  1.0000
  N   N10       1.0  0.15009  0.78532  0.23204  1.0000
  N   N11       1.0  0.84993  0.71470  0.73204  1.0000
  N   N12       1.0  0.34995  0.78530  0.76796  1.0000
  N   N13       1.0  0.34995  0.28530  0.73203  1.0000
  N   N14       1.0  0.84992  0.21468  0.76797  1.0000
  N   N15       1.0  0.15005  0.28529  0.26796  1.0000
  N   N16       1.0  0.65008  0.21470  0.23203  1.0000
