data_image0
_chemical_formula_structural       CuH24C16N12Cl2O10
_chemical_formula_sum              "Cu1 H24 C16 N12 Cl2 O10"
_cell_length_a       8.57077
_cell_length_b       9.17867
_cell_length_c       10.2152
_cell_angle_alpha    107.682
_cell_angle_beta     99.0366
_cell_angle_gamma    116.421

_space_group_name_H-M_alt    "P 1"
_space_group_IT_number       1

loop_
  _space_group_symop_operation_xyz
  'x, y, z'

loop_
  _atom_site_type_symbol
  _atom_site_label
  _atom_site_symmetry_multiplicity
  _atom_site_fract_x
  _atom_site_fract_y
  _atom_site_fract_z
  _atom_site_occupancy
  Cu  Cu1       1.0  0.50000  0.50000  0.50000  1.0000
  H   H1        1.0  0.23465  0.20806  0.17096  1.0000
  H   H2        1.0  0.76535  0.79195  0.82904  1.0000
  H   H3        1.0  0.47525  0.77018  0.34922  1.0000
  H   H4        1.0  0.52475  0.22982  0.65078  1.0000
  H   H5        1.0  0.22623  0.73937  0.10069  1.0000
  H   H6        1.0  0.77377  0.26064  0.89931  1.0000
  H   H7        1.0  0.16642  0.54745  0.94172  1.0000
  H   H8        1.0  0.83358  0.45255  0.05828  1.0000
  H   H9        1.0  0.51311  0.67697  0.98796  1.0000
  H   H10       1.0  0.48688  0.32303  0.01204  1.0000
  H   H11       1.0  0.42671  0.80617  0.94133  1.0000
  H   H12       1.0  0.57329  0.19384  0.05867  1.0000
  H   H13       1.0  0.75696  0.06244  0.07487  1.0000
  H   H14       1.0  0.24304  0.93756  0.92512  1.0000
  H   H15       1.0  0.82514  0.93107  0.13938  1.0000
  H   H16       1.0  0.17486  0.06893  0.86061  1.0000
  H   H17       1.0  0.86921  0.11547  0.39512  1.0000
  H   H18       1.0  0.13079  0.88453  0.60488  1.0000
  H   H19       1.0  0.01932  0.24444  0.32003  1.0000
  H   H20       1.0  0.98067  0.75555  0.67996  1.0000
  H   H21       1.0  0.59925  0.17651  0.43297  1.0000
  H   H22       1.0  0.40074  0.82349  0.56702  1.0000
  H   H23       1.0  0.81206  0.63873  0.34917  1.0000
  H   H24       1.0  0.18795  0.36127  0.65083  1.0000
  C   C1        1.0  0.27159  0.34192  0.18196  1.0000
  C   C2        1.0  0.72841  0.65808  0.81804  1.0000
  C   C3        1.0  0.39631  0.62816  0.27710  1.0000
  C   C4        1.0  0.60369  0.37184  0.72289  1.0000
  C   C5        1.0  0.27333  0.65135  0.04727  1.0000
  C   C6        1.0  0.72667  0.34866  0.95273  1.0000
  C   C7        1.0  0.45377  0.76024  0.02575  1.0000
  C   C8        1.0  0.54623  0.23976  0.97425  1.0000
  C   C9        1.0  0.76071  0.01247  0.16043  1.0000
  C   C10       1.0  0.23929  0.98753  0.83956  1.0000
  C   C11       1.0  0.87440  0.16678  0.31101  1.0000
  C   C12       1.0  0.12560  0.83322  0.68899  1.0000
  C   C13       1.0  0.67666  0.28229  0.40110  1.0000
  C   C14       1.0  0.32334  0.71771  0.59890  1.0000
  C   C15       1.0  0.78654  0.51456  0.35530  1.0000
  C   C16       1.0  0.21347  0.48544  0.64470  1.0000
  N   N1        1.0  0.38409  0.49334  0.30965  1.0000
  N   N2        1.0  0.61591  0.50666  0.69035  1.0000
  N   N3        1.0  0.29464  0.55839  0.13568  1.0000
  N   N4        1.0  0.70536  0.44161  0.86433  1.0000
  N   N5        1.0  0.21474  0.37660  0.07314  1.0000
  N   N6        1.0  0.78526  0.62341  0.92686  1.0000
  N   N7        1.0  0.80905  0.29118  0.34368  1.0000
  N   N8        1.0  0.19095  0.70882  0.65632  1.0000
  N   N9        1.0  0.88083  0.43800  0.31351  1.0000
  N   N10       1.0  0.11918  0.56200  0.68649  1.0000
  N   N11       1.0  0.65938  0.42293  0.41030  1.0000
  N   N12       1.0  0.34062  0.57706  0.58970  1.0000
  Cl  Cl1       1.0  0.18956  0.99651  0.34602  1.0000
  Cl  Cl2       1.0  0.81043  0.00349  0.65399  1.0000
  O   O1        1.0  0.57835  0.90941  0.16197  1.0000
  O   O2        1.0  0.42166  0.09059  0.83803  1.0000
  O   O3        1.0  0.25596  0.18532  0.43740  1.0000
  O   O4        1.0  0.74404  0.81468  0.56261  1.0000
  O   O5        1.0  0.99925  0.88406  0.33433  1.0000
  O   O6        1.0  0.00074  0.11594  0.66567  1.0000
  O   O7        1.0  0.30854  0.94574  0.41455  1.0000
  O   O8        1.0  0.69146  0.05426  0.58545  1.0000
  O   O9        1.0  0.20095  0.97894  0.20121  1.0000
  O   O10       1.0  0.79904  0.02105  0.79879  1.0000
