data_image0
_chemical_formula_structural       Zn2H20C24N8Cl4
_chemical_formula_sum              "Zn2 H20 C24 N8 Cl4"
_cell_length_a       6.30019
_cell_length_b       7.35345
_cell_length_c       15.9422
_cell_angle_alpha    87.9545
_cell_angle_beta     89.9951
_cell_angle_gamma    115.433

_space_group_name_H-M_alt    "P 1"
_space_group_IT_number       1

loop_
  _space_group_symop_operation_xyz
  'x, y, z'

loop_
  _atom_site_type_symbol
  _atom_site_label
  _atom_site_symmetry_multiplicity
  _atom_site_fract_x
  _atom_site_fract_y
  _atom_site_fract_z
  _atom_site_occupancy
  Zn  Zn1       1.0  0.05678  0.99959  0.74991  1.0000
  Zn  Zn2       1.0  0.94323  0.00046  0.25009  1.0000
  H   H1        1.0  0.61855  0.30213  0.79982  1.0000
  H   H2        1.0  0.31589  0.69742  0.70021  1.0000
  H   H3        1.0  0.38149  0.69791  0.20019  1.0000
  H   H4        1.0  0.68412  0.30262  0.29978  1.0000
  H   H5        1.0  0.01987  0.90481  0.93983  1.0000
  H   H6        1.0  0.11514  0.09420  0.56011  1.0000
  H   H7        1.0  0.98015  0.09515  0.06017  1.0000
  H   H8        1.0  0.88483  0.90585  0.43988  1.0000
  H   H9        1.0  0.37000  0.12580  0.05119  1.0000
  H   H10       1.0  0.24468  0.87362  0.44877  1.0000
  H   H11       1.0  0.63004  0.87407  0.94881  1.0000
  H   H12       1.0  0.75526  0.12642  0.55123  1.0000
  H   H13       1.0  0.63521  0.42417  0.08297  1.0000
  H   H14       1.0  0.21122  0.57587  0.41705  1.0000
  H   H15       1.0  0.36484  0.57576  0.91705  1.0000
  H   H16       1.0  0.78873  0.42416  0.58294  1.0000
  H   H17       1.0  0.97973  0.36416  0.85762  1.0000
  H   H18       1.0  0.61549  0.63567  0.64244  1.0000
  H   H19       1.0  0.02031  0.63575  0.14238  1.0000
  H   H20       1.0  0.38447  0.36436  0.35756  1.0000
  C   C1        1.0  0.50066  0.22299  0.85196  1.0000
  C   C2        1.0  0.27740  0.77638  0.64800  1.0000
  C   C3        1.0  0.49933  0.77702  0.14805  1.0000
  C   C4        1.0  0.72259  0.22368  0.35199  1.0000
  C   C5        1.0  0.19545  0.02197  0.92811  1.0000
  C   C6        1.0  0.17334  0.97710  0.57180  1.0000
  C   C7        1.0  0.80459  0.97799  0.07188  1.0000
  C   C8        1.0  0.82665  0.02297  0.42820  1.0000
  C   C9        1.0  0.36669  0.12799  0.98315  1.0000
  C   C10       1.0  0.23874  0.87125  0.51681  1.0000
  C   C11       1.0  0.63336  0.87192  0.01686  1.0000
  C   C12       1.0  0.76123  0.12881  0.48319  1.0000
  C   C13       1.0  0.78297  0.38218  0.96640  1.0000
  C   C14       1.0  0.40109  0.61775  0.53360  1.0000
  C   C15       1.0  0.21707  0.61774  0.03361  1.0000
  C   C16       1.0  0.59885  0.38230  0.46640  1.0000
  C   C17       1.0  0.79488  0.45660  0.04660  1.0000
  C   C18       1.0  0.33831  0.54319  0.45339  1.0000
  C   C19       1.0  0.20514  0.54329  0.95340  1.0000
  C   C20       1.0  0.66164  0.45687  0.54660  1.0000
  C   C21       1.0  0.98766  0.42517  0.91958  1.0000
  C   C22       1.0  0.56268  0.57499  0.58047  1.0000
  C   C23       1.0  0.01235  0.57473  0.08043  1.0000
  C   C24       1.0  0.43729  0.42507  0.41954  1.0000
  N   N1        1.0  0.27993  0.08322  0.84695  1.0000
  N   N2        1.0  0.19639  0.91590  0.65296  1.0000
  N   N3        1.0  0.72006  0.91680  0.15305  1.0000
  N   N4        1.0  0.80361  0.08416  0.34703  1.0000
  N   N5        1.0  0.56006  0.25456  0.93424  1.0000
  N   N6        1.0  0.30544  0.74492  0.56574  1.0000
  N   N7        1.0  0.43997  0.74538  0.06577  1.0000
  N   N8        1.0  0.69451  0.25512  0.43425  1.0000
  Cl  Cl1       1.0  0.72250  0.74027  0.80010  1.0000
  Cl  Cl2       1.0  0.98229  0.25890  0.69985  1.0000
  Cl  Cl3       1.0  0.27752  0.25976  0.19989  1.0000
  Cl  Cl4       1.0  0.01771  0.74114  0.30016  1.0000
