data_image0
_chemical_formula_structural       Zn2H32C38N8O10
_chemical_formula_sum              "Zn2 H32 C38 N8 O10"
_cell_length_a       5.69104
_cell_length_b       9.97291
_cell_length_c       15.8505
_cell_angle_alpha    98.449
_cell_angle_beta     100.036
_cell_angle_gamma    102.821

_space_group_name_H-M_alt    "P 1"
_space_group_IT_number       1

loop_
  _space_group_symop_operation_xyz
  'x, y, z'

loop_
  _atom_site_type_symbol
  _atom_site_label
  _atom_site_symmetry_multiplicity
  _atom_site_fract_x
  _atom_site_fract_y
  _atom_site_fract_z
  _atom_site_occupancy
  Zn  Zn1       1.0  0.63957  0.08895  0.66216  1.0000
  Zn  Zn2       1.0  0.36044  0.91106  0.33784  1.0000
  H   H1        1.0  0.17219  0.13825  0.59794  1.0000
  H   H2        1.0  0.82781  0.86175  0.40206  1.0000
  H   H3        1.0  0.31604  0.29191  0.72544  1.0000
  H   H4        1.0  0.68398  0.70809  0.27455  1.0000
  H   H5        1.0  0.10691  0.38977  0.52117  1.0000
  H   H6        1.0  0.89308  0.61024  0.47883  1.0000
  H   H7        1.0  0.32295  0.37919  0.61114  1.0000
  H   H8        1.0  0.67704  0.62082  0.38886  1.0000
  H   H9        1.0  0.60645  0.43830  0.00307  1.0000
  H   H10       1.0  0.39353  0.56168  0.99692  1.0000
  H   H11       1.0  0.33902  0.87287  0.81708  1.0000
  H   H12       1.0  0.66095  0.12710  0.18292  1.0000
  H   H13       1.0  0.27815  0.60485  0.69371  1.0000
  H   H14       1.0  0.72187  0.39516  0.30628  1.0000
  H   H15       1.0  0.06064  0.61756  0.60519  1.0000
  H   H16       1.0  0.93939  0.38246  0.39481  1.0000
  H   H17       1.0  0.37226  0.01177  0.96685  1.0000
  H   H18       1.0  0.62771  0.98821  0.03315  1.0000
  H   H19       1.0  0.30467  0.44309  0.86503  1.0000
  H   H20       1.0  0.69530  0.55690  0.13497  1.0000
  H   H21       1.0  0.60178  0.61863  0.60262  1.0000
  H   H22       1.0  0.39824  0.38138  0.39738  1.0000
  H   H23       1.0  0.38848  0.63189  0.51207  1.0000
  H   H24       1.0  0.61156  0.36812  0.48793  1.0000
  H   H25       1.0  0.04076  0.90549  0.69161  1.0000
  H   H26       1.0  0.95925  0.09451  0.30840  1.0000
  H   H27       1.0  0.12268  0.42472  0.22217  1.0000
  H   H28       1.0  0.87729  0.57526  0.77784  1.0000
  H   H29       1.0  0.41486  0.26921  0.20790  1.0000
  H   H30       1.0  0.58511  0.73077  0.79210  1.0000
  H   H31       1.0  0.32732  0.11128  0.52361  1.0000
  H   H32       1.0  0.67269  0.88872  0.47639  1.0000
  C   C1        1.0  0.09153  0.11279  0.92171  1.0000
  C   C2        1.0  0.90846  0.88721  0.07828  1.0000
  C   C3        1.0  0.92274  0.12056  0.84719  1.0000
  C   C4        1.0  0.07724  0.87943  0.15281  1.0000
  C   C5        1.0  0.94391  0.28786  0.01297  1.0000
  C   C6        1.0  0.05608  0.71214  0.98703  1.0000
  C   C7        1.0  0.75856  0.21175  0.85443  1.0000
  C   C8        1.0  0.24142  0.78826  0.14557  1.0000
  C   C9        1.0  0.44262  0.29508  0.78602  1.0000
  C   C10       1.0  0.55740  0.70493  0.21398  1.0000
  C   C11       1.0  0.76746  0.29339  0.93613  1.0000
  C   C12       1.0  0.23256  0.70660  0.06387  1.0000
  C   C13       1.0  0.10646  0.19970  0.00548  1.0000
  C   C14       1.0  0.89353  0.80028  0.99452  1.0000
  C   C15       1.0  0.16032  0.41981  0.59289  1.0000
  C   C16       1.0  0.83968  0.58020  0.40710  1.0000
  C   C17       1.0  0.49985  0.81260  0.61570  1.0000
  C   C18       1.0  0.50016  0.18741  0.38431  1.0000
  C   C19       1.0  0.94611  0.34199  0.62762  1.0000
  C   C20       1.0  0.05390  0.65803  0.37239  1.0000
  C   C21       1.0  0.60079  0.37735  0.93982  1.0000
  C   C22       1.0  0.39921  0.62265  0.06018  1.0000
  C   C23       1.0  0.22278  0.94343  0.82854  1.0000
  C   C24       1.0  0.77722  0.05656  0.17146  1.0000
  C   C25       1.0  0.22537  0.57833  0.62201  1.0000
  C   C26       1.0  0.77464  0.42167  0.37799  1.0000
  C   C27       1.0  0.24238  0.02046  0.91040  1.0000
  C   C28       1.0  0.75761  0.97953  0.08960  1.0000
  C   C29       1.0  0.43732  0.37902  0.86452  1.0000
  C   C30       1.0  0.56268  0.62098  0.13548  1.0000
  C   C31       1.0  0.43376  0.65503  0.58390  1.0000
  C   C32       1.0  0.56628  0.34498  0.41610  1.0000
  C   C33       1.0  0.05408  0.96096  0.75752  1.0000
  C   C34       1.0  0.94592  0.03904  0.24249  1.0000
  C   C35       1.0  0.11552  0.36029  0.15899  1.0000
  C   C36       1.0  0.88446  0.63971  0.84101  1.0000
  C   C37       1.0  0.28035  0.27439  0.15087  1.0000
  C   C38       1.0  0.71963  0.72560  0.84913  1.0000
  N   N1        1.0  0.90800  0.04687  0.76703  1.0000
  N   N2        1.0  0.09200  0.95313  0.23297  1.0000
  N   N3        1.0  0.59807  0.21355  0.78110  1.0000
  N   N4        1.0  0.40192  0.78645  0.21890  1.0000
  N   N5        1.0  0.94981  0.36787  0.09054  1.0000
  N   N6        1.0  0.05018  0.63212  0.90946  1.0000
  N   N7        1.0  0.27756  0.19525  0.07536  1.0000
  N   N8        1.0  0.72242  0.80475  0.92464  1.0000
  O   O1        1.0  0.31648  0.10390  0.58529  1.0000
  O   O2        1.0  0.68351  0.89610  0.41470  1.0000
  O   O3        1.0  0.42543  0.86229  0.68103  1.0000
  O   O4        1.0  0.57459  0.13771  0.31896  1.0000
  O   O5        1.0  0.63748  0.89490  0.57790  1.0000
  O   O6        1.0  0.36254  0.10512  0.42210  1.0000
  O   O7        1.0  0.92401  0.20704  0.62047  1.0000
  O   O8        1.0  0.07597  0.79297  0.37953  1.0000
  O   O9        1.0  0.80459  0.40451  0.65910  1.0000
  O   O10       1.0  0.19544  0.59552  0.34091  1.0000
