data_image0
_chemical_formula_structural       Sm2H18C12O18
_chemical_formula_sum              "Sm2 H18 C12 O18"
_cell_length_a       6.01652
_cell_length_b       10.122
_cell_length_c       9.19062
_cell_angle_alpha    78.4706
_cell_angle_beta     69.7655
_cell_angle_gamma    82.4496

_space_group_name_H-M_alt    "P 1"
_space_group_IT_number       1

loop_
  _space_group_symop_operation_xyz
  'x, y, z'

loop_
  _atom_site_type_symbol
  _atom_site_label
  _atom_site_symmetry_multiplicity
  _atom_site_fract_x
  _atom_site_fract_y
  _atom_site_fract_z
  _atom_site_occupancy
  Sm  Sm1       1.0  0.47961  0.88833  0.23019  1.0000
  Sm  Sm2       1.0  0.52041  0.11168  0.76981  1.0000
  H   H1        1.0  0.53120  0.38865  0.10397  1.0000
  H   H2        1.0  0.46880  0.61135  0.89602  1.0000
  H   H3        1.0  0.91260  0.47191  0.93540  1.0000
  H   H4        1.0  0.08741  0.52810  0.06459  1.0000
  H   H5        1.0  0.09617  0.45548  0.63988  1.0000
  H   H6        1.0  0.90379  0.54452  0.36010  1.0000
  H   H7        1.0  0.88951  0.77380  0.38729  1.0000
  H   H8        1.0  0.11045  0.22621  0.61272  1.0000
  H   H9        1.0  0.61148  0.73806  0.47619  1.0000
  H   H10       1.0  0.38852  0.26197  0.52381  1.0000
  H   H11       1.0  0.28042  0.04469  0.50778  1.0000
  H   H12       1.0  0.71958  0.95532  0.49221  1.0000
  H   H13       1.0  0.32247  0.89541  0.58379  1.0000
  H   H14       1.0  0.67752  0.10460  0.41621  1.0000
  H   H15       1.0  0.00459  0.04952  0.33031  1.0000
  H   H16       1.0  0.99541  0.95048  0.66968  1.0000
  H   H17       1.0  0.09137  0.07441  0.13914  1.0000
  H   H18       1.0  0.90864  0.92558  0.86085  1.0000
  C   C1        1.0  0.63077  0.17247  0.10710  1.0000
  C   C2        1.0  0.36927  0.82751  0.89290  1.0000
  C   C3        1.0  0.68216  0.31760  0.06049  1.0000
  C   C4        1.0  0.31779  0.68239  0.93954  1.0000
  C   C5        1.0  0.89323  0.36372  0.97011  1.0000
  C   C6        1.0  0.10675  0.63628  0.02989  1.0000
  C   C7        1.0  0.11199  0.27630  0.91420  1.0000
  C   C8        1.0  0.88804  0.72370  0.08582  1.0000
  C   C9        1.0  0.21606  0.63807  0.47305  1.0000
  C   C10       1.0  0.78396  0.36194  0.52693  1.0000
  C   C11       1.0  0.07170  0.51742  0.53424  1.0000
  C   C12       1.0  0.92830  0.48260  0.46574  1.0000
  O   O1        1.0  0.61838  0.10942  0.24367  1.0000
  O   O2        1.0  0.38163  0.89058  0.75634  1.0000
  O   O3        1.0  0.58273  0.11423  0.01201  1.0000
  O   O4        1.0  0.41730  0.88577  0.98800  1.0000
  O   O5        1.0  0.10634  0.14626  0.94924  1.0000
  O   O6        1.0  0.89364  0.85372  0.05076  1.0000
  O   O7        1.0  0.30440  0.33098  0.83040  1.0000
  O   O8        1.0  0.69563  0.66903  0.16959  1.0000
  O   O9        1.0  0.36842  0.64773  0.53530  1.0000
  O   O10       1.0  0.63154  0.35227  0.46473  1.0000
  O   O11       1.0  0.17770  0.72721  0.35919  1.0000
  O   O12       1.0  0.82229  0.27280  0.64081  1.0000
  O   O13       1.0  0.71974  0.81239  0.41579  1.0000
  O   O14       1.0  0.28026  0.18757  0.58422  1.0000
  O   O15       1.0  0.26253  0.94940  0.50046  1.0000
  O   O16       1.0  0.73747  0.05060  0.49953  1.0000
  O   O17       1.0  0.13811  0.03780  0.23381  1.0000
  O   O18       1.0  0.86188  0.96219  0.76620  1.0000
