data_image0
_chemical_formula_structural       Na4H14C8S2N4Cl2O8
_chemical_formula_sum              "Na4 H14 C8 S2 N4 Cl2 O8"
_cell_length_a       6.54963
_cell_length_b       8.68227
_cell_length_c       9.9786
_cell_angle_alpha    115.782
_cell_angle_beta     109.127
_cell_angle_gamma    90.02

_space_group_name_H-M_alt    "P 1"
_space_group_IT_number       1

loop_
  _space_group_symop_operation_xyz
  'x, y, z'

loop_
  _atom_site_type_symbol
  _atom_site_label
  _atom_site_symmetry_multiplicity
  _atom_site_fract_x
  _atom_site_fract_y
  _atom_site_fract_z
  _atom_site_occupancy
  Na  Na1       1.0  0.75217  0.25241  0.50466  1.0000
  Na  Na2       1.0  0.74781  0.74772  0.49533  1.0000
  Na  Na3       1.0  0.24786  0.74759  0.49537  1.0000
  Na  Na4       1.0  0.25220  0.25227  0.50464  1.0000
  H   H1        1.0  0.75011  0.73172  0.99997  1.0000
  H   H2        1.0  0.24992  0.26829  0.00001  1.0000
  H   H3        1.0  0.62763  0.18459  0.75537  1.0000
  H   H4        1.0  0.87238  0.42932  0.24471  1.0000
  H   H5        1.0  0.37232  0.81541  0.24463  1.0000
  H   H6        1.0  0.12764  0.57070  0.75530  1.0000
  H   H7        1.0  0.40206  0.36837  0.30417  1.0000
  H   H8        1.0  0.09801  0.06409  0.69581  1.0000
  H   H9        1.0  0.59795  0.63163  0.69584  1.0000
  H   H10       1.0  0.90201  0.93591  0.30420  1.0000
  H   H11       1.0  0.36610  0.16154  0.23229  1.0000
  H   H12       1.0  0.13389  0.92914  0.76767  1.0000
  H   H13       1.0  0.63393  0.83846  0.76771  1.0000
  H   H14       1.0  0.86610  0.07086  0.23234  1.0000
  C   C1        1.0  0.75004  0.28162  0.00004  1.0000
  C   C2        1.0  0.24992  0.71839  0.99998  1.0000
  C   C3        1.0  0.67715  0.45369  0.85431  1.0000
  C   C4        1.0  0.82288  0.59937  0.14563  1.0000
  C   C5        1.0  0.32287  0.54630  0.14566  1.0000
  C   C6        1.0  0.17707  0.40064  0.85435  1.0000
  C   C7        1.0  0.75004  0.60663  1.00000  1.0000
  C   C8        1.0  0.24996  0.39336  0.00001  1.0000
  S   S1        1.0  0.75017  0.08864  0.00000  1.0000
  S   S2        1.0  0.24984  0.91136  0.00001  1.0000
  N   N1        1.0  0.68136  0.29681  0.86281  1.0000
  N   N2        1.0  0.81860  0.43403  0.13720  1.0000
  N   N3        1.0  0.31857  0.70319  0.13717  1.0000
  N   N4        1.0  0.18137  0.56598  0.86278  1.0000
  Cl  Cl1       1.0  0.50000  0.99999  0.50000  1.0000
  Cl  Cl2       1.0  0.00001  0.50000  0.50000  1.0000
  O   O1        1.0  0.60722  0.44288  0.71459  1.0000
  O   O2        1.0  0.89283  0.72833  0.28537  1.0000
  O   O3        1.0  0.39284  0.55710  0.28540  1.0000
  O   O4        1.0  0.10719  0.27168  0.71462  1.0000
  O   O5        1.0  0.41631  0.27117  0.33286  1.0000
  O   O6        1.0  0.08377  0.93819  0.66710  1.0000
  O   O7        1.0  0.58369  0.72885  0.66715  1.0000
  O   O8        1.0  0.91623  0.06181  0.33291  1.0000
