data_image0
_chemical_formula_structural       Zn2H26C28N4O10
_chemical_formula_sum              "Zn2 H26 C28 N4 O10"
_cell_length_a       8.01027
_cell_length_b       9.3089
_cell_length_c       9.73867
_cell_angle_alpha    98.7388
_cell_angle_beta     93.951
_cell_angle_gamma    110.66

_space_group_name_H-M_alt    "P 1"
_space_group_IT_number       1

loop_
  _space_group_symop_operation_xyz
  'x, y, z'

loop_
  _atom_site_type_symbol
  _atom_site_label
  _atom_site_symmetry_multiplicity
  _atom_site_fract_x
  _atom_site_fract_y
  _atom_site_fract_z
  _atom_site_occupancy
  Zn  Zn1       1.0  0.61715  0.66977  0.50811  1.0000
  Zn  Zn2       1.0  0.38284  0.33023  0.49189  1.0000
  H   H1        1.0  0.43740  0.88262  0.89544  1.0000
  H   H2        1.0  0.56260  0.11738  0.10456  1.0000
  H   H3        1.0  0.29398  0.91432  0.11354  1.0000
  H   H4        1.0  0.70603  0.08568  0.88646  1.0000
  H   H5        1.0  0.16453  0.42539  0.12287  1.0000
  H   H6        1.0  0.83547  0.57461  0.87712  1.0000
  H   H7        1.0  0.30346  0.39626  0.90732  1.0000
  H   H8        1.0  0.69654  0.60374  0.09268  1.0000
  H   H9        1.0  0.98760  0.60979  0.39399  1.0000
  H   H10       1.0  0.01239  0.39021  0.60601  1.0000
  H   H11       1.0  0.97142  0.46491  0.24643  1.0000
  H   H12       1.0  0.02858  0.53509  0.75356  1.0000
  H   H13       1.0  0.90254  0.79572  0.29601  1.0000
  H   H14       1.0  0.09746  0.20428  0.70399  1.0000
  H   H15       1.0  0.64349  0.03236  0.55679  1.0000
  H   H16       1.0  0.35651  0.96764  0.44321  1.0000
  H   H17       1.0  0.81125  0.21963  0.37289  1.0000
  H   H18       1.0  0.18875  0.78037  0.62710  1.0000
  H   H19       1.0  0.13973  0.10830  0.23407  1.0000
  H   H20       1.0  0.86027  0.89169  0.76593  1.0000
  H   H21       1.0  0.98376  0.19020  0.18185  1.0000
  H   H22       1.0  0.01624  0.80980  0.81815  1.0000
  H   H23       1.0  0.79921  0.93387  0.01984  1.0000
  H   H24       1.0  0.20079  0.06613  0.98016  1.0000
  H   H25       1.0  0.96094  0.85577  0.06888  1.0000
  H   H26       1.0  0.03905  0.14423  0.93113  1.0000
  C   C1        1.0  0.44677  0.60925  0.75008  1.0000
  C   C2        1.0  0.55323  0.39075  0.24992  1.0000
  C   C3        1.0  0.37640  0.63613  0.88575  1.0000
  C   C4        1.0  0.62361  0.36387  0.11425  1.0000
  C   C5        1.0  0.37667  0.78323  0.94598  1.0000
  C   C6        1.0  0.62333  0.21678  0.05402  1.0000
  C   C7        1.0  0.29559  0.80110  0.06589  1.0000
  C   C8        1.0  0.70441  0.19890  0.93411  1.0000
  C   C9        1.0  0.21348  0.67169  0.12826  1.0000
  C   C10       1.0  0.78652  0.32831  0.87174  1.0000
  C   C11       1.0  0.22076  0.52600  0.07326  1.0000
  C   C12       1.0  0.77924  0.47400  0.92674  1.0000
  C   C13       1.0  0.29995  0.50945  0.95236  1.0000
  C   C14       1.0  0.70006  0.49055  0.04764  1.0000
  C   C15       1.0  0.21885  0.54265  0.39184  1.0000
  C   C16       1.0  0.78115  0.45735  0.60816  1.0000
  C   C17       1.0  0.06376  0.57238  0.31582  1.0000
  C   C18       1.0  0.93624  0.42761  0.68418  1.0000
  C   C19       1.0  0.85333  0.88347  0.34311  1.0000
  C   C20       1.0  0.14667  0.11653  0.65689  1.0000
  C   C21       1.0  0.72099  0.00981  0.47517  1.0000
  C   C22       1.0  0.27901  0.99019  0.52483  1.0000
  C   C23       1.0  0.80321  0.10397  0.38489  1.0000
  C   C24       1.0  0.19679  0.89603  0.61511  1.0000
  C   C25       1.0  0.99766  0.07980  0.19470  1.0000
  C   C26       1.0  0.00234  0.92020  0.80530  1.0000
  C   C27       1.0  0.94324  0.96505  0.05528  1.0000
  C   C28       1.0  0.05676  0.03495  0.94473  1.0000
  N   N1        1.0  0.88638  0.02252  0.30230  1.0000
  N   N2        1.0  0.11362  0.97748  0.69771  1.0000
  N   N3        1.0  0.75286  0.87225  0.44777  1.0000
  N   N4        1.0  0.24714  0.12774  0.55223  1.0000
  O   O1        1.0  0.55628  0.72649  0.70785  1.0000
  O   O2        1.0  0.44372  0.27352  0.29215  1.0000
  O   O3        1.0  0.38852  0.46853  0.68399  1.0000
  O   O4        1.0  0.61148  0.53148  0.31601  1.0000
  O   O5        1.0  0.18532  0.40269  0.40915  1.0000
  O   O6        1.0  0.81468  0.59731  0.59084  1.0000
  O   O7        1.0  0.36273  0.65942  0.43229  1.0000
  O   O8        1.0  0.63727  0.34058  0.56771  1.0000
  O   O9        1.0  0.12652  0.69723  0.24001  1.0000
  O   O10       1.0  0.87348  0.30277  0.75999  1.0000
