data_image0
_chemical_formula_structural       Cd2H16C8S2Br2N8
_chemical_formula_sum              "Cd2 H16 C8 S2 Br2 N8"
_cell_length_a       6.77931
_cell_length_b       7.46461
_cell_length_c       12.1448
_cell_angle_alpha    69.8988
_cell_angle_beta     84.2197
_cell_angle_gamma    76.2541

_space_group_name_H-M_alt    "P 1"
_space_group_IT_number       1

loop_
  _space_group_symop_operation_xyz
  'x, y, z'

loop_
  _atom_site_type_symbol
  _atom_site_label
  _atom_site_symmetry_multiplicity
  _atom_site_fract_x
  _atom_site_fract_y
  _atom_site_fract_z
  _atom_site_occupancy
  Cd  Cd1       1.0  0.32461  0.30035  0.58987  1.0000
  Cd  Cd2       1.0  0.67539  0.69967  0.41012  1.0000
  H   H1        1.0  0.69441  0.34757  0.96959  1.0000
  H   H2        1.0  0.30557  0.65241  0.03041  1.0000
  H   H3        1.0  0.50622  0.29050  0.90156  1.0000
  H   H4        1.0  0.49379  0.70947  0.09843  1.0000
  H   H5        1.0  0.50580  0.54166  0.88026  1.0000
  H   H6        1.0  0.49417  0.45830  0.11974  1.0000
  H   H7        1.0  0.03357  0.26436  0.85900  1.0000
  H   H8        1.0  0.96643  0.73564  0.14099  1.0000
  H   H9        1.0  0.97694  0.03725  0.61814  1.0000
  H   H10       1.0  0.02307  0.96274  0.38188  1.0000
  H   H11       1.0  0.93781  0.22107  0.48010  1.0000
  H   H12       1.0  0.06218  0.77892  0.51991  1.0000
  H   H13       1.0  0.29122  0.09916  0.42952  1.0000
  H   H14       1.0  0.70878  0.90085  0.57048  1.0000
  H   H15       1.0  0.32317  0.94197  0.56291  1.0000
  H   H16       1.0  0.67684  0.05805  0.43709  1.0000
  C   C1        1.0  0.66989  0.48761  0.67478  1.0000
  C   C2        1.0  0.33011  0.51240  0.32522  1.0000
  C   C3        1.0  0.60111  0.39563  0.89194  1.0000
  C   C4        1.0  0.39888  0.60434  0.10806  1.0000
  C   C5        1.0  0.93693  0.33837  0.78347  1.0000
  C   C6        1.0  0.06305  0.66164  0.21650  1.0000
  C   C7        1.0  0.02417  0.07295  0.52517  1.0000
  C   C8        1.0  0.97584  0.92705  0.47484  1.0000
  S   S1        1.0  0.42640  0.59603  0.62806  1.0000
  S   S2        1.0  0.57360  0.40399  0.37194  1.0000
  Br  Br1       1.0  0.54582  0.00498  0.75876  1.0000
  Br  Br2       1.0  0.45418  0.99505  0.24125  1.0000
  N   N1        1.0  0.73280  0.40648  0.78906  1.0000
  N   N2        1.0  0.26721  0.59352  0.21093  1.0000
  N   N3        1.0  0.83200  0.47094  0.60388  1.0000
  N   N4        1.0  0.16800  0.52908  0.39611  1.0000
  N   N5        1.0  0.99888  0.37646  0.67278  1.0000
  N   N6        1.0  0.00112  0.62355  0.32722  1.0000
  N   N7        1.0  0.24160  0.07714  0.51514  1.0000
  N   N8        1.0  0.75841  0.92287  0.48487  1.0000
