data_image0
_chemical_formula_structural       Ag4H8C24N16Cl4O16
_chemical_formula_sum              "Ag4 H8 C24 N16 Cl4 O16"
_cell_length_a       7.884
_cell_length_b       7.88397
_cell_length_c       15.0967
_cell_angle_alpha    90.0002
_cell_angle_beta     90
_cell_angle_gamma    90

_space_group_name_H-M_alt    "P 1"
_space_group_IT_number       1

loop_
  _space_group_symop_operation_xyz
  'x, y, z'

loop_
  _atom_site_type_symbol
  _atom_site_label
  _atom_site_symmetry_multiplicity
  _atom_site_fract_x
  _atom_site_fract_y
  _atom_site_fract_z
  _atom_site_occupancy
  Ag  Ag1       1.0  0.75000  0.25000  0.10324  1.0000
  Ag  Ag2       1.0  0.25000  0.75000  0.60324  1.0000
  Ag  Ag3       1.0  0.25000  0.75000  0.89676  1.0000
  Ag  Ag4       1.0  0.75000  0.25000  0.39676  1.0000
  H   H1        1.0  0.75000  0.59003  0.95841  1.0000
  H   H2        1.0  0.90997  0.75000  0.45841  1.0000
  H   H3        1.0  0.25000  0.40998  0.04159  1.0000
  H   H4        1.0  0.75000  0.90998  0.95841  1.0000
  H   H5        1.0  0.09003  0.25000  0.54159  1.0000
  H   H6        1.0  0.59003  0.75000  0.45841  1.0000
  H   H7        1.0  0.25000  0.09003  0.04159  1.0000
  H   H8        1.0  0.40997  0.25000  0.54159  1.0000
  C   C1        1.0  0.75000  0.56906  0.25316  1.0000
  C   C2        1.0  0.93094  0.75000  0.75316  1.0000
  C   C3        1.0  0.25000  0.43094  0.74683  1.0000
  C   C4        1.0  0.75000  0.93094  0.25317  1.0000
  C   C5        1.0  0.06906  0.25000  0.24684  1.0000
  C   C6        1.0  0.56906  0.75000  0.75316  1.0000
  C   C7        1.0  0.25000  0.06906  0.74683  1.0000
  C   C8        1.0  0.43094  0.25000  0.24684  1.0000
  C   C9        1.0  0.75000  0.66070  0.17158  1.0000
  C   C10       1.0  0.83930  0.75000  0.67158  1.0000
  C   C11       1.0  0.25000  0.33930  0.82842  1.0000
  C   C12       1.0  0.75000  0.83930  0.17158  1.0000
  C   C13       1.0  0.16070  0.25000  0.32842  1.0000
  C   C14       1.0  0.66070  0.75000  0.67158  1.0000
  C   C15       1.0  0.25000  0.16070  0.82842  1.0000
  C   C16       1.0  0.33930  0.25000  0.32842  1.0000
  C   C17       1.0  0.75000  0.66077  0.02049  1.0000
  C   C18       1.0  0.83924  0.75000  0.52050  1.0000
  C   C19       1.0  0.25000  0.33924  0.97950  1.0000
  C   C20       1.0  0.75000  0.83924  0.02050  1.0000
  C   C21       1.0  0.16076  0.25000  0.47950  1.0000
  C   C22       1.0  0.66076  0.75000  0.52050  1.0000
  C   C23       1.0  0.25000  0.16076  0.97950  1.0000
  C   C24       1.0  0.33924  0.25000  0.47951  1.0000
  N   N1        1.0  0.75000  0.49657  0.32046  1.0000
  N   N2        1.0  0.00343  0.75000  0.82046  1.0000
  N   N3        1.0  0.25000  0.50343  0.67954  1.0000
  N   N4        1.0  0.75000  0.00343  0.32046  1.0000
  N   N5        1.0  0.99657  0.25000  0.17954  1.0000
  N   N6        1.0  0.49657  0.75000  0.82046  1.0000
  N   N7        1.0  0.25000  0.99657  0.67954  1.0000
  N   N8        1.0  0.50343  0.25000  0.17954  1.0000
  N   N9        1.0  0.75000  0.57183  0.09545  1.0000
  N   N10       1.0  0.92817  0.75000  0.59545  1.0000
  N   N11       1.0  0.25000  0.42817  0.90455  1.0000
  N   N12       1.0  0.75000  0.92817  0.09545  1.0000
  N   N13       1.0  0.07183  0.25000  0.40455  1.0000
  N   N14       1.0  0.57183  0.75000  0.59545  1.0000
  N   N15       1.0  0.25000  0.07183  0.90455  1.0000
  N   N16       1.0  0.42817  0.25000  0.40455  1.0000
  Cl  Cl1       1.0  0.75000  0.25000  0.89058  1.0000
  Cl  Cl2       1.0  0.25000  0.75000  0.39058  1.0000
  Cl  Cl3       1.0  0.25000  0.75000  0.10942  1.0000
  Cl  Cl4       1.0  0.75000  0.25000  0.60942  1.0000
  O   O1        1.0  0.90081  0.24999  0.94883  1.0000
  O   O2        1.0  0.25000  0.90081  0.44884  1.0000
  O   O3        1.0  0.40081  0.75000  0.05117  1.0000
  O   O4        1.0  0.59919  0.24999  0.94883  1.0000
  O   O5        1.0  0.75000  0.40081  0.55116  1.0000
  O   O6        1.0  0.25000  0.59919  0.44884  1.0000
  O   O7        1.0  0.09919  0.75000  0.05117  1.0000
  O   O8        1.0  0.75000  0.09919  0.55116  1.0000
  O   O9        1.0  0.75000  0.09742  0.83684  1.0000
  O   O10       1.0  0.40258  0.75000  0.33685  1.0000
  O   O11       1.0  0.25000  0.90258  0.16315  1.0000
  O   O12       1.0  0.75000  0.40258  0.83685  1.0000
  O   O13       1.0  0.59742  0.25000  0.66315  1.0000
  O   O14       1.0  0.09742  0.75000  0.33685  1.0000
  O   O15       1.0  0.25000  0.59742  0.16315  1.0000
  O   O16       1.0  0.90258  0.25000  0.66315  1.0000
