data_image0
_chemical_formula_structural       Cu2H32C24S2N16O8
_chemical_formula_sum              "Cu2 H32 C24 S2 N16 O8"
_cell_length_a       8.07328
_cell_length_b       8.63675
_cell_length_c       13.8094
_cell_angle_alpha    92.1334
_cell_angle_beta     99.8771
_cell_angle_gamma    91.9953

_space_group_name_H-M_alt    "P 1"
_space_group_IT_number       1

loop_
  _space_group_symop_operation_xyz
  'x, y, z'

loop_
  _atom_site_type_symbol
  _atom_site_label
  _atom_site_symmetry_multiplicity
  _atom_site_fract_x
  _atom_site_fract_y
  _atom_site_fract_z
  _atom_site_occupancy
  Cu  Cu1       1.0  0.50000  0.00000  0.50000  1.0000
  Cu  Cu2       1.0  0.50000  0.00000  0.00000  1.0000
  H   H1        1.0  0.27583  0.81190  0.62427  1.0000
  H   H2        1.0  0.72417  0.18810  0.37573  1.0000
  H   H3        1.0  0.64574  0.72434  0.57823  1.0000
  H   H4        1.0  0.35427  0.27566  0.42177  1.0000
  H   H5        1.0  0.32922  0.72649  0.84537  1.0000
  H   H6        1.0  0.67078  0.27351  0.15463  1.0000
  H   H7        1.0  0.24526  0.19053  0.08336  1.0000
  H   H8        1.0  0.75474  0.80948  0.91664  1.0000
  H   H9        1.0  0.16007  0.97291  0.34405  1.0000
  H   H10       1.0  0.83993  0.02710  0.65594  1.0000
  H   H11       1.0  0.88504  0.78796  0.37311  1.0000
  H   H12       1.0  0.11496  0.21204  0.62688  1.0000
  H   H13       1.0  0.98279  0.69120  0.56276  1.0000
  H   H14       1.0  0.01721  0.30879  0.43724  1.0000
  H   H15       1.0  0.48473  0.80480  0.29037  1.0000
  H   H16       1.0  0.51527  0.19520  0.70963  1.0000
  H   H17       1.0  0.59510  0.50004  0.29364  1.0000
  H   H18       1.0  0.40490  0.49996  0.70635  1.0000
  H   H19       1.0  0.71053  0.46225  0.49052  1.0000
  H   H20       1.0  0.28948  0.53775  0.50948  1.0000
  H   H21       1.0  0.45058  0.74662  0.14663  1.0000
  H   H22       1.0  0.54942  0.25339  0.85337  1.0000
  H   H23       1.0  0.28954  0.46141  0.09563  1.0000
  H   H24       1.0  0.71046  0.53859  0.90437  1.0000
  H   H25       1.0  0.20459  0.46678  0.89172  1.0000
  H   H26       1.0  0.79541  0.53322  0.10828  1.0000
  H   H27       1.0  0.21362  0.99588  0.80308  1.0000
  H   H28       1.0  0.78638  0.00411  0.19692  1.0000
  H   H29       1.0  0.91079  0.13888  0.80930  1.0000
  H   H30       1.0  0.08920  0.86111  0.19070  1.0000
  H   H31       1.0  0.95146  0.26122  0.99926  1.0000
  H   H32       1.0  0.04854  0.73877  0.00074  1.0000
  C   C1        1.0  0.13954  0.90806  0.40699  1.0000
  C   C2        1.0  0.86045  0.09194  0.59301  1.0000
  C   C3        1.0  0.00220  0.81433  0.42313  1.0000
  C   C4        1.0  0.99780  0.18567  0.57687  1.0000
  C   C5        1.0  0.04858  0.76379  0.51810  1.0000
  C   C6        1.0  0.95143  0.23621  0.48189  1.0000
  C   C7        1.0  0.53900  0.73605  0.35131  1.0000
  C   C8        1.0  0.46101  0.26394  0.64869  1.0000
  C   C9        1.0  0.59779  0.58436  0.35409  1.0000
  C   C10       1.0  0.40222  0.41564  0.64591  1.0000
  C   C11       1.0  0.65626  0.56152  0.45319  1.0000
  C   C12       1.0  0.34374  0.43849  0.54681  1.0000
  C   C13       1.0  0.39665  0.69614  0.07487  1.0000
  C   C14       1.0  0.60335  0.30386  0.92513  1.0000
  C   C15       1.0  0.31135  0.55294  0.04721  1.0000
  C   C16       1.0  0.68866  0.44706  0.95279  1.0000
  C   C17       1.0  0.26853  0.55372  0.94524  1.0000
  C   C18       1.0  0.73147  0.44628  0.05476  1.0000
  C   C19       1.0  0.17096  0.05936  0.86293  1.0000
  C   C20       1.0  0.82904  0.94063  0.13707  1.0000
  C   C21       1.0  0.01961  0.13313  0.86681  1.0000
  C   C22       1.0  0.98039  0.86687  0.13319  1.0000
  C   C23       1.0  0.03603  0.19476  0.96273  1.0000
  C   C24       1.0  0.96397  0.80524  0.03727  1.0000
  S   S1        1.0  0.45019  0.15202  0.24461  1.0000
  S   S2        1.0  0.54981  0.84798  0.75539  1.0000
  N   N1        1.0  0.26108  0.91322  0.48700  1.0000
  N   N2        1.0  0.73892  0.08678  0.51300  1.0000
  N   N3        1.0  0.20444  0.82480  0.55380  1.0000
  N   N4        1.0  0.79556  0.17519  0.44619  1.0000
  N   N5        1.0  0.56125  0.79976  0.44287  1.0000
  N   N6        1.0  0.43875  0.20024  0.55712  1.0000
  N   N7        1.0  0.63266  0.69349  0.50384  1.0000
  N   N8        1.0  0.36734  0.30651  0.49616  1.0000
  N   N9        1.0  0.40446  0.77891  0.99521  1.0000
  N   N10       1.0  0.59554  0.22109  0.00479  1.0000
  N   N11       1.0  0.32427  0.69155  0.91685  1.0000
  N   N12       1.0  0.67573  0.30845  0.08315  1.0000
  N   N13       1.0  0.27205  0.07607  0.95125  1.0000
  N   N14       1.0  0.72795  0.92393  0.04875  1.0000
  N   N15       1.0  0.18846  0.15828  0.01078  1.0000
  N   N16       1.0  0.81154  0.84173  0.98922  1.0000
  O   O1        1.0  0.62967  0.22089  0.26347  1.0000
  O   O2        1.0  0.37032  0.77911  0.73653  1.0000
  O   O3        1.0  0.33652  0.26628  0.19360  1.0000
  O   O4        1.0  0.66348  0.73373  0.80640  1.0000
  O   O5        1.0  0.40356  0.12162  0.34253  1.0000
  O   O6        1.0  0.59644  0.87837  0.65747  1.0000
  O   O7        1.0  0.44398  0.00675  0.18364  1.0000
  O   O8        1.0  0.55602  0.99326  0.81636  1.0000
