data_image0
_chemical_formula_structural       Co2H26C32N4O8F6
_chemical_formula_sum              "Co2 H26 C32 N4 O8 F6"
_cell_length_a       8.01789
_cell_length_b       9.1739
_cell_length_c       11.5697
_cell_angle_alpha    99.0444
_cell_angle_beta     97.4026
_cell_angle_gamma    101.551

_space_group_name_H-M_alt    "P 1"
_space_group_IT_number       1

loop_
  _space_group_symop_operation_xyz
  'x, y, z'

loop_
  _atom_site_type_symbol
  _atom_site_label
  _atom_site_symmetry_multiplicity
  _atom_site_fract_x
  _atom_site_fract_y
  _atom_site_fract_z
  _atom_site_occupancy
  Co  Co1       1.0  0.65054  0.95920  0.12979  1.0000
  Co  Co2       1.0  0.34937  0.04091  0.87026  1.0000
  H   H1        1.0  0.48324  0.63916  0.00541  1.0000
  H   H2        1.0  0.51660  0.36085  0.99457  1.0000
  H   H3        1.0  0.48006  0.46607  0.81780  1.0000
  H   H4        1.0  0.51985  0.53393  0.18221  1.0000
  H   H5        1.0  0.89398  0.80975  0.74954  1.0000
  H   H6        1.0  0.10599  0.19022  0.25053  1.0000
  H   H7        1.0  0.87740  0.96578  0.93785  1.0000
  H   H8        1.0  0.12254  0.03419  0.06222  1.0000
  H   H9        1.0  0.41289  0.96098  0.31148  1.0000
  H   H10       1.0  0.58732  0.03899  0.68854  1.0000
  H   H11       1.0  0.38347  0.12725  0.49676  1.0000
  H   H12       1.0  0.61658  0.87269  0.50321  1.0000
  H   H13       1.0  0.83156  0.44752  0.44654  1.0000
  H   H14       1.0  0.16841  0.55258  0.55350  1.0000
  H   H15       1.0  0.83982  0.26835  0.26445  1.0000
  H   H16       1.0  0.16024  0.73180  0.73557  1.0000
  H   H17       1.0  0.79950  0.58144  0.60637  1.0000
  H   H18       1.0  0.20045  0.41857  0.39368  1.0000
  H   H19       1.0  0.49000  0.34491  0.64683  1.0000
  H   H20       1.0  0.50997  0.65507  0.35319  1.0000
  H   H21       1.0  0.82684  0.35931  0.87218  1.0000
  H   H22       1.0  0.17333  0.64068  0.12783  1.0000
  H   H23       1.0  0.98579  0.27356  0.94080  1.0000
  H   H24       1.0  0.01428  0.72635  0.05925  1.0000
  H   H25       1.0  0.89971  0.40474  0.03009  1.0000
  H   H26       1.0  0.10035  0.59517  0.96993  1.0000
  C   C1        1.0  0.57132  0.67243  0.94516  1.0000
  C   C2        1.0  0.42856  0.32758  0.05485  1.0000
  C   C3        1.0  0.57104  0.57588  0.84029  1.0000
  C   C4        1.0  0.42888  0.42410  0.15972  1.0000
  C   C5        1.0  0.68760  0.62192  0.76442  1.0000
  C   C6        1.0  0.31232  0.37806  0.23562  1.0000
  C   C7        1.0  0.80006  0.76511  0.80256  1.0000
  C   C8        1.0  0.19989  0.23487  0.19749  1.0000
  C   C9        1.0  0.79087  0.85467  0.90874  1.0000
  C   C10       1.0  0.20905  0.14530  0.09131  1.0000
  C   C11       1.0  0.50309  0.06955  0.34567  1.0000
  C   C12       1.0  0.49706  0.93045  0.65435  1.0000
  C   C13       1.0  0.48755  0.16311  0.44841  1.0000
  C   C14       1.0  0.51252  0.83687  0.55159  1.0000
  C   C15       1.0  0.60676  0.30223  0.49062  1.0000
  C   C16       1.0  0.39325  0.69779  0.50940  1.0000
  C   C17       1.0  0.73558  0.34088  0.42153  1.0000
  C   C18       1.0  0.26444  0.65919  0.57850  1.0000
  C   C19       1.0  0.74221  0.24154  0.31991  1.0000
  C   C20       1.0  0.25786  0.75856  0.68012  1.0000
  C   C21       1.0  0.69772  0.53083  0.65196  1.0000
  C   C22       1.0  0.30223  0.46917  0.34808  1.0000
  C   C23       1.0  0.59328  0.39437  0.60185  1.0000
  C   C24       1.0  0.40668  0.60561  0.39816  1.0000
  C   C25       1.0  0.84747  0.84409  0.26689  1.0000
  C   C26       1.0  0.15257  0.15593  0.73304  1.0000
  C   C27       1.0  0.96514  0.78560  0.35780  1.0000
  C   C28       1.0  0.03487  0.21440  0.64214  1.0000
  C   C29       1.0  0.72970  0.18691  0.97007  1.0000
  C   C30       1.0  0.27029  0.81305  0.02987  1.0000
  C   C31       1.0  0.86786  0.31479  0.95089  1.0000
  C   C32       1.0  0.13222  0.68515  0.04911  1.0000
  N   N1        1.0  0.67708  0.81175  0.98001  1.0000
  N   N2        1.0  0.32279  0.18826  0.02001  1.0000
  N   N3        1.0  0.62914  0.10624  0.28182  1.0000
  N   N4        1.0  0.37101  0.89382  0.71821  1.0000
  O   O1        1.0  0.69041  0.77645  0.24349  1.0000
  O   O2        1.0  0.30946  0.22404  0.75686  1.0000
  O   O3        1.0  0.91434  0.95486  0.22320  1.0000
  O   O4        1.0  0.08589  0.04466  0.77628  1.0000
  O   O5        1.0  0.75303  0.14272  0.06893  1.0000
  O   O6        1.0  0.24685  0.85720  0.93099  1.0000
  O   O7        1.0  0.60052  0.13128  0.88826  1.0000
  O   O8        1.0  0.39946  0.86877  0.11165  1.0000
  F   F1        1.0  0.90240  0.78671  0.46251  1.0000
  F   F2        1.0  0.09760  0.21328  0.53741  1.0000
  F   F3        1.0  0.12939  0.86950  0.38343  1.0000
  F   F4        1.0  0.87062  0.13048  0.61652  1.0000
  F   F5        1.0  0.97173  0.63893  0.31587  1.0000
  F   F6        1.0  0.02825  0.36106  0.68404  1.0000
