data_image0
_chemical_formula_structural       Li4H20C8N16O20
_chemical_formula_sum              "Li4 H20 C8 N16 O20"
_cell_length_a       3.46582
_cell_length_b       7.39047
_cell_length_c       24.6885
_cell_angle_alpha    95.4658
_cell_angle_beta     89.9999
_cell_angle_gamma    90.0002

_space_group_name_H-M_alt    "P 1"
_space_group_IT_number       1

loop_
  _space_group_symop_operation_xyz
  'x, y, z'

loop_
  _atom_site_type_symbol
  _atom_site_label
  _atom_site_symmetry_multiplicity
  _atom_site_fract_x
  _atom_site_fract_y
  _atom_site_fract_z
  _atom_site_occupancy
  Li  Li1       1.0  0.37983  0.60774  0.37026  1.0000
  Li  Li2       1.0  0.87983  0.89226  0.12974  1.0000
  Li  Li3       1.0  0.62017  0.39226  0.62974  1.0000
  Li  Li4       1.0  0.12017  0.10774  0.87026  1.0000
  H   H1        1.0  0.78933  0.87296  0.47200  1.0000
  H   H2        1.0  0.28932  0.62704  0.02800  1.0000
  H   H3        1.0  0.21068  0.12704  0.52800  1.0000
  H   H4        1.0  0.71067  0.37296  0.97200  1.0000
  H   H5        1.0  0.89949  0.46561  0.29863  1.0000
  H   H6        1.0  0.39949  0.03439  0.20137  1.0000
  H   H7        1.0  0.10051  0.53440  0.70137  1.0000
  H   H8        1.0  0.60050  0.96561  0.79863  1.0000
  H   H9        1.0  0.85698  0.36849  0.35279  1.0000
  H   H10       1.0  0.35699  0.13151  0.14721  1.0000
  H   H11       1.0  0.14302  0.63151  0.64720  1.0000
  H   H12       1.0  0.64301  0.86849  0.85279  1.0000
  H   H13       1.0  0.22893  0.62910  0.47401  1.0000
  H   H14       1.0  0.72892  0.87091  0.02599  1.0000
  H   H15       1.0  0.77107  0.37090  0.52599  1.0000
  H   H16       1.0  0.27107  0.12910  0.97401  1.0000
  H   H17       1.0  0.23011  0.42610  0.45195  1.0000
  H   H18       1.0  0.73010  0.07390  0.04805  1.0000
  H   H19       1.0  0.76989  0.57390  0.54805  1.0000
  H   H20       1.0  0.26989  0.92610  0.95195  1.0000
  C   C1        1.0  0.86485  0.12471  0.43436  1.0000
  C   C2        1.0  0.36485  0.37529  0.06564  1.0000
  C   C3        1.0  0.13516  0.87529  0.56564  1.0000
  C   C4        1.0  0.63515  0.62471  0.93436  1.0000
  C   C5        1.0  0.62086  0.00876  0.36032  1.0000
  C   C6        1.0  0.12085  0.49123  0.13968  1.0000
  C   C7        1.0  0.37914  0.99123  0.63968  1.0000
  C   C8        1.0  0.87914  0.50877  0.86032  1.0000
  N   N1        1.0  0.58336  0.87468  0.39206  1.0000
  N   N2        1.0  0.08336  0.62532  0.10794  1.0000
  N   N3        1.0  0.41665  0.12532  0.60794  1.0000
  N   N4        1.0  0.91664  0.37468  0.89206  1.0000
  N   N5        1.0  0.73488  0.94946  0.43932  1.0000
  N   N6        1.0  0.23488  0.55054  0.06069  1.0000
  N   N7        1.0  0.26512  0.05054  0.56069  1.0000
  N   N8        1.0  0.76512  0.44946  0.93931  1.0000
  N   N9        1.0  0.78718  0.16326  0.38253  1.0000
  N   N10       1.0  0.28718  0.33673  0.11747  1.0000
  N   N11       1.0  0.21282  0.83674  0.61747  1.0000
  N   N12       1.0  0.71282  0.66327  0.88253  1.0000
  N   N13       1.0  0.48746  0.97979  0.30512  1.0000
  N   N14       1.0  0.98746  0.52021  0.19488  1.0000
  N   N15       1.0  0.51254  0.02021  0.69488  1.0000
  N   N16       1.0  0.01254  0.47979  0.80512  1.0000
  O   O1        1.0  0.87865  0.49110  0.33844  1.0000
  O   O2        1.0  0.37865  0.00890  0.16156  1.0000
  O   O3        1.0  0.12135  0.50890  0.66156  1.0000
  O   O4        1.0  0.62135  0.99110  0.83844  1.0000
  O   O5        1.0  0.32915  0.54624  0.44378  1.0000
  O   O6        1.0  0.82915  0.95377  0.05622  1.0000
  O   O7        1.0  0.67085  0.45376  0.55621  1.0000
  O   O8        1.0  0.17085  0.04624  0.94378  1.0000
  O   O9        1.0  0.02943  0.22476  0.47237  1.0000
  O   O10       1.0  0.52943  0.27524  0.02763  1.0000
  O   O11       1.0  0.97057  0.77524  0.52763  1.0000
  O   O12       1.0  0.47057  0.72475  0.97237  1.0000
  O   O13       1.0  0.30380  0.83842  0.29166  1.0000
  O   O14       1.0  0.80378  0.66157  0.20834  1.0000
  O   O15       1.0  0.69622  0.16157  0.70835  1.0000
  O   O16       1.0  0.19621  0.33844  0.79166  1.0000
  O   O17       1.0  0.56414  0.09909  0.27427  1.0000
  O   O18       1.0  0.06415  0.40090  0.22573  1.0000
  O   O19       1.0  0.43585  0.90091  0.72573  1.0000
  O   O20       1.0  0.93584  0.59910  0.77427  1.0000
