data_image0
_chemical_formula_structural       In4H44C28
_chemical_formula_sum              "In4 H44 C28"
_cell_length_a       6.4918
_cell_length_b       9.48318
_cell_length_c       12.1929
_cell_angle_alpha    90.0018
_cell_angle_beta     100.684
_cell_angle_gamma    90

_space_group_name_H-M_alt    "P 1"
_space_group_IT_number       1

loop_
  _space_group_symop_operation_xyz
  'x, y, z'

loop_
  _atom_site_type_symbol
  _atom_site_label
  _atom_site_symmetry_multiplicity
  _atom_site_fract_x
  _atom_site_fract_y
  _atom_site_fract_z
  _atom_site_occupancy
  In  In1       1.0  0.69323  0.29309  0.61978  1.0000
  In  In2       1.0  0.80677  0.79306  0.88022  1.0000
  In  In3       1.0  0.30675  0.70693  0.38022  1.0000
  In  In4       1.0  0.19328  0.20691  0.11981  1.0000
  H   H1        1.0  0.97544  0.38080  0.49097  1.0000
  H   H2        1.0  0.52458  0.88079  0.00901  1.0000
  H   H3        1.0  0.02451  0.61924  0.50902  1.0000
  H   H4        1.0  0.47545  0.11922  0.99097  1.0000
  H   H5        1.0  0.71707  0.38239  0.40891  1.0000
  H   H6        1.0  0.78295  0.88239  0.09107  1.0000
  H   H7        1.0  0.28289  0.61757  0.59106  1.0000
  H   H8        1.0  0.21708  0.11759  0.90893  1.0000
  H   H9        1.0  0.85762  0.22008  0.43513  1.0000
  H   H10       1.0  0.64239  0.72008  0.06488  1.0000
  H   H11       1.0  0.14241  0.77992  0.56491  1.0000
  H   H12       1.0  0.35761  0.27992  0.93513  1.0000
  H   H13       1.0  0.37282  0.28978  0.73596  1.0000
  H   H14       1.0  0.12719  0.78978  0.76404  1.0000
  H   H15       1.0  0.62717  0.71020  0.26405  1.0000
  H   H16       1.0  0.87285  0.21020  0.23597  1.0000
  H   H17       1.0  0.30689  0.17910  0.61538  1.0000
  H   H18       1.0  0.19317  0.67911  0.88462  1.0000
  H   H19       1.0  0.69313  0.82090  0.38463  1.0000
  H   H20       1.0  0.80691  0.32089  0.11540  1.0000
  H   H21       1.0  0.28276  0.36643  0.60115  1.0000
  H   H22       1.0  0.21721  0.86646  0.89885  1.0000
  H   H23       1.0  0.71718  0.63355  0.39887  1.0000
  H   H24       1.0  0.78283  0.13354  0.10116  1.0000
  H   H25       1.0  0.03963  0.13894  0.73222  1.0000
  H   H26       1.0  0.46037  0.63893  0.76777  1.0000
  H   H27       1.0  0.96033  0.86105  0.26775  1.0000
  H   H28       1.0  0.53968  0.36110  0.23228  1.0000
  H   H29       1.0  0.88910  0.97802  0.55224  1.0000
  H   H30       1.0  0.61088  0.47805  0.94774  1.0000
  H   H31       1.0  0.11087  0.02198  0.44771  1.0000
  H   H32       1.0  0.38916  0.52197  0.05230  1.0000
  H   H33       1.0  0.54197  0.84898  0.58940  1.0000
  H   H34       1.0  0.95799  0.34897  0.91059  1.0000
  H   H35       1.0  0.45799  0.15103  0.41053  1.0000
  H   H36       1.0  0.04203  0.65103  0.08945  1.0000
  H   H37       1.0  0.45149  0.95012  0.78136  1.0000
  H   H38       1.0  0.04849  0.45009  0.71862  1.0000
  H   H39       1.0  0.54845  0.04985  0.21857  1.0000
  H   H40       1.0  0.95156  0.54992  0.28142  1.0000
  H   H41       1.0  0.75780  0.12943  0.87158  1.0000
  H   H42       1.0  0.74214  0.62938  0.62838  1.0000
  H   H43       1.0  0.24207  0.87058  0.12834  1.0000
  H   H44       1.0  0.25794  0.37066  0.37168  1.0000
  C   C1        1.0  0.82764  0.32259  0.47064  1.0000
  C   C2        1.0  0.67238  0.82258  0.02935  1.0000
  C   C3        1.0  0.17232  0.67741  0.52935  1.0000
  C   C4        1.0  0.32768  0.17741  0.97065  1.0000
  C   C5        1.0  0.37421  0.28060  0.64659  1.0000
  C   C6        1.0  0.12582  0.78060  0.85340  1.0000
  C   C7        1.0  0.62577  0.71940  0.35341  1.0000
  C   C8        1.0  0.87425  0.21939  0.14662  1.0000
  C   C9        1.0  0.88673  0.08761  0.71600  1.0000
  C   C10       1.0  0.61323  0.58761  0.78398  1.0000
  C   C11       1.0  0.11321  0.91238  0.28396  1.0000
  C   C12       1.0  0.38681  0.41240  0.21605  1.0000
  C   C13       1.0  0.81470  0.99297  0.62424  1.0000
  C   C14       1.0  0.68527  0.49298  0.87575  1.0000
  C   C15       1.0  0.18527  0.00703  0.37571  1.0000
  C   C16       1.0  0.31475  0.50703  0.12429  1.0000
  C   C17       1.0  0.63747  0.92312  0.64474  1.0000
  C   C18       1.0  0.86249  0.42312  0.85525  1.0000
  C   C19       1.0  0.36248  0.07687  0.35521  1.0000
  C   C20       1.0  0.13754  0.57688  0.14478  1.0000
  C   C21       1.0  0.59734  0.96777  0.75134  1.0000
  C   C22       1.0  0.90261  0.46775  0.74865  1.0000
  C   C23       1.0  0.40261  0.03221  0.24860  1.0000
  C   C24       1.0  0.09741  0.53225  0.25139  1.0000
  C   C25       1.0  0.75184  0.07010  0.79482  1.0000
  C   C26       1.0  0.74812  0.57008  0.70518  1.0000
  C   C27       1.0  0.24810  0.92989  0.20515  1.0000
  C   C28       1.0  0.25192  0.42994  0.29486  1.0000
