data_image0
_chemical_formula_structural       Cd4H44C24N4Cl8O4
_chemical_formula_sum              "Cd4 H44 C24 N4 Cl8 O4"
_cell_length_a       6.60467
_cell_length_b       10.0233
_cell_length_c       14.8513
_cell_angle_alpha    90.0006
_cell_angle_beta     90.0002
_cell_angle_gamma    108.292

_space_group_name_H-M_alt    "P 1"
_space_group_IT_number       1

loop_
  _space_group_symop_operation_xyz
  'x, y, z'

loop_
  _atom_site_type_symbol
  _atom_site_label
  _atom_site_symmetry_multiplicity
  _atom_site_fract_x
  _atom_site_fract_y
  _atom_site_fract_z
  _atom_site_occupancy
  Cd  Cd1       1.0  0.55772  0.78290  0.25057  1.0000
  Cd  Cd2       1.0  0.94229  0.21710  0.75057  1.0000
  Cd  Cd3       1.0  0.44229  0.21710  0.74943  1.0000
  Cd  Cd4       1.0  0.05772  0.78290  0.24943  1.0000
  H   H1        1.0  0.71266  0.01403  0.10704  1.0000
  H   H2        1.0  0.78734  0.98597  0.60704  1.0000
  H   H3        1.0  0.28732  0.98596  0.89296  1.0000
  H   H4        1.0  0.21268  0.01404  0.39296  1.0000
  H   H5        1.0  0.16872  0.10311  0.17711  1.0000
  H   H6        1.0  0.33127  0.89689  0.67711  1.0000
  H   H7        1.0  0.83126  0.89688  0.82289  1.0000
  H   H8        1.0  0.66874  0.10312  0.32289  1.0000
  H   H9        1.0  0.25894  0.14960  0.06554  1.0000
  H   H10       1.0  0.24106  0.85040  0.56554  1.0000
  H   H11       1.0  0.74104  0.85040  0.93447  1.0000
  H   H12       1.0  0.75896  0.14961  0.43447  1.0000
  H   H13       1.0  0.30158  0.35299  0.17967  1.0000
  H   H14       1.0  0.19841  0.64701  0.67967  1.0000
  H   H15       1.0  0.69840  0.64701  0.82033  1.0000
  H   H16       1.0  0.80161  0.35299  0.32033  1.0000
  H   H17       1.0  0.50885  0.30377  0.22953  1.0000
  H   H18       1.0  0.99115  0.69623  0.72953  1.0000
  H   H19       1.0  0.49114  0.69623  0.77047  1.0000
  H   H20       1.0  0.00887  0.30378  0.27047  1.0000
  H   H21       1.0  0.48741  0.39267  0.03291  1.0000
  H   H22       1.0  0.01258  0.60733  0.53291  1.0000
  H   H23       1.0  0.51256  0.60732  0.96709  1.0000
  H   H24       1.0  0.98745  0.39269  0.46709  1.0000
  H   H25       1.0  0.63449  0.50183  0.11918  1.0000
  H   H26       1.0  0.86551  0.49817  0.61918  1.0000
  H   H27       1.0  0.36550  0.49816  0.88081  1.0000
  H   H28       1.0  0.13451  0.50184  0.38082  1.0000
  H   H29       1.0  0.87105  0.35093  0.13239  1.0000
  H   H30       1.0  0.62894  0.64906  0.63239  1.0000
  H   H31       1.0  0.12892  0.64906  0.86761  1.0000
  H   H32       1.0  0.37109  0.35095  0.36762  1.0000
  H   H33       1.0  0.86771  0.41645  0.02240  1.0000
  H   H34       1.0  0.63228  0.58354  0.52239  1.0000
  H   H35       1.0  0.13226  0.58354  0.97760  1.0000
  H   H36       1.0  0.36774  0.41646  0.47761  1.0000
  H   H37       1.0  0.59304  0.18646  0.97846  1.0000
  H   H38       1.0  0.90696  0.81353  0.47845  1.0000
  H   H39       1.0  0.40695  0.81353  0.02154  1.0000
  H   H40       1.0  0.09305  0.18647  0.52154  1.0000
  H   H41       1.0  0.85133  0.17933  0.00221  1.0000
  H   H42       1.0  0.64866  0.82067  0.50221  1.0000
  H   H43       1.0  0.14865  0.82067  0.99779  1.0000
  H   H44       1.0  0.35135  0.17933  0.49780  1.0000
  C   C1        1.0  0.44846  0.05683  0.14514  1.0000
  C   C2        1.0  0.05154  0.94317  0.64513  1.0000
  C   C3        1.0  0.55152  0.94316  0.85486  1.0000
  C   C4        1.0  0.94848  0.05684  0.35486  1.0000
  C   C5        1.0  0.31128  0.15052  0.13613  1.0000
  C   C6        1.0  0.18872  0.84947  0.63613  1.0000
  C   C7        1.0  0.68871  0.84948  0.86387  1.0000
  C   C8        1.0  0.81129  0.15053  0.36387  1.0000
  C   C9        1.0  0.42466  0.30331  0.16543  1.0000
  C   C10       1.0  0.07533  0.69669  0.66543  1.0000
  C   C11       1.0  0.57533  0.69669  0.83457  1.0000
  C   C12       1.0  0.92468  0.30331  0.33457  1.0000
  C   C13       1.0  0.57749  0.39246  0.09537  1.0000
  C   C14       1.0  0.92250  0.60753  0.59537  1.0000
  C   C15       1.0  0.42249  0.60753  0.90462  1.0000
  C   C16       1.0  0.07751  0.39247  0.40463  1.0000
  C   C17       1.0  0.76946  0.34445  0.07278  1.0000
  C   C18       1.0  0.73053  0.65554  0.57277  1.0000
  C   C19       1.0  0.23051  0.65554  0.92722  1.0000
  C   C20       1.0  0.26949  0.34446  0.42723  1.0000
  C   C21       1.0  0.71067  0.19714  0.03268  1.0000
  C   C22       1.0  0.78932  0.80285  0.53268  1.0000
  C   C23       1.0  0.28931  0.80285  0.96732  1.0000
  C   C24       1.0  0.21069  0.19715  0.46733  1.0000
  N   N1        1.0  0.62847  0.08366  0.09838  1.0000
  N   N2        1.0  0.87152  0.91634  0.59838  1.0000
  N   N3        1.0  0.37151  0.91634  0.90162  1.0000
  N   N4        1.0  0.12849  0.08367  0.40162  1.0000
  Cl  Cl1       1.0  0.22455  0.61175  0.17631  1.0000
  Cl  Cl2       1.0  0.27545  0.38826  0.67631  1.0000
  Cl  Cl3       1.0  0.77545  0.38826  0.82369  1.0000
  Cl  Cl4       1.0  0.72455  0.61175  0.32369  1.0000
  Cl  Cl5       1.0  0.82498  0.81898  0.11105  1.0000
  Cl  Cl6       1.0  0.67502  0.18102  0.61105  1.0000
  Cl  Cl7       1.0  0.17501  0.18102  0.88895  1.0000
  Cl  Cl8       1.0  0.32499  0.81899  0.38895  1.0000
  O   O1        1.0  0.39505  0.95335  0.20012  1.0000
  O   O2        1.0  0.10496  0.04665  0.70012  1.0000
  O   O3        1.0  0.60495  0.04665  0.79988  1.0000
  O   O4        1.0  0.89505  0.95335  0.29988  1.0000
