data_image0
_chemical_formula_structural       Co2P2H20C12N2O12
_chemical_formula_sum              "Co2 P2 H20 C12 N2 O12"
_cell_length_a       6.57548
_cell_length_b       7.4077
_cell_length_c       9.94932
_cell_angle_alpha    87.6016
_cell_angle_beta     77.3646
_cell_angle_gamma    70.1271

_space_group_name_H-M_alt    "P 1"
_space_group_IT_number       1

loop_
  _space_group_symop_operation_xyz
  'x, y, z'

loop_
  _atom_site_type_symbol
  _atom_site_label
  _atom_site_symmetry_multiplicity
  _atom_site_fract_x
  _atom_site_fract_y
  _atom_site_fract_z
  _atom_site_occupancy
  Co  Co1       1.0  0.26649  0.17358  0.03692  1.0000
  Co  Co2       1.0  0.73352  0.82642  0.96308  1.0000
  P   P1        1.0  0.73136  0.21646  0.11015  1.0000
  P   P2        1.0  0.26865  0.78354  0.88985  1.0000
  H   H1        1.0  0.56205  0.26708  0.48947  1.0000
  H   H2        1.0  0.43795  0.73292  0.51052  1.0000
  H   H3        1.0  0.68848  0.40332  0.66592  1.0000
  H   H4        1.0  0.31152  0.59667  0.33408  1.0000
  H   H5        1.0  0.09469  0.35598  0.63160  1.0000
  H   H6        1.0  0.90530  0.64401  0.36840  1.0000
  H   H7        1.0  0.34885  0.19068  0.40616  1.0000
  H   H8        1.0  0.65115  0.80931  0.59385  1.0000
  H   H9        1.0  0.67787  0.01702  0.29902  1.0000
  H   H10       1.0  0.32213  0.98298  0.70098  1.0000
  H   H11       1.0  0.95544  0.93413  0.20213  1.0000
  H   H12       1.0  0.04456  0.06587  0.79787  1.0000
  H   H13       1.0  0.32122  0.44349  0.14902  1.0000
  H   H14       1.0  0.67878  0.55651  0.85098  1.0000
  H   H15       1.0  0.11931  0.55783  0.07859  1.0000
  H   H16       1.0  0.88069  0.44217  0.92140  1.0000
  H   H17       1.0  0.37499  0.39366  0.83258  1.0000
  H   H18       1.0  0.62501  0.60633  0.16742  1.0000
  H   H19       1.0  0.50515  0.16973  0.80092  1.0000
  H   H20       1.0  0.49485  0.83027  0.19908  1.0000
  C   C1        1.0  0.88242  0.15361  0.35660  1.0000
  C   C2        1.0  0.11757  0.84639  0.64340  1.0000
  C   C3        1.0  0.73582  0.25206  0.47525  1.0000
  C   C4        1.0  0.26418  0.74794  0.52475  1.0000
  C   C5        1.0  0.80680  0.32605  0.57499  1.0000
  C   C6        1.0  0.19319  0.67395  0.42501  1.0000
  C   C7        1.0  0.03165  0.30224  0.55495  1.0000
  C   C8        1.0  0.96835  0.69776  0.44506  1.0000
  C   C9        1.0  0.17349  0.21073  0.43522  1.0000
  C   C10       1.0  0.82651  0.78927  0.56478  1.0000
  C   C11       1.0  0.81921  0.06165  0.25114  1.0000
  C   C12       1.0  0.18079  0.93835  0.74886  1.0000
  N   N1        1.0  0.09991  0.13908  0.33902  1.0000
  N   N2        1.0  0.90009  0.86092  0.66098  1.0000
  O   O1        1.0  0.93955  0.23714  0.01454  1.0000
  O   O2        1.0  0.06045  0.76286  0.98546  1.0000
  O   O3        1.0  0.61544  0.10933  0.03881  1.0000
  O   O4        1.0  0.38456  0.89067  0.96119  1.0000
  O   O5        1.0  0.56519  0.40898  0.17570  1.0000
  O   O6        1.0  0.43481  0.59102  0.82430  1.0000
  O   O7        1.0  0.24560  0.04857  0.22692  1.0000
  O   O8        1.0  0.75440  0.95144  0.77308  1.0000
  O   O9        1.0  0.17562  0.44191  0.13296  1.0000
  O   O10       1.0  0.82438  0.55809  0.86703  1.0000
  O   O11       1.0  0.35510  0.26429  0.83264  1.0000
  O   O12       1.0  0.64491  0.73571  0.16735  1.0000
