data_image0
_chemical_formula_structural       Cd2P2H20C12N2O12
_chemical_formula_sum              "Cd2 P2 H20 C12 N2 O12"
_cell_length_a       6.83844
_cell_length_b       7.57273
_cell_length_c       10.0972
_cell_angle_alpha    87.78
_cell_angle_beta     78.0567
_cell_angle_gamma    70.0464

_space_group_name_H-M_alt    "P 1"
_space_group_IT_number       1

loop_
  _space_group_symop_operation_xyz
  'x, y, z'

loop_
  _atom_site_type_symbol
  _atom_site_label
  _atom_site_symmetry_multiplicity
  _atom_site_fract_x
  _atom_site_fract_y
  _atom_site_fract_z
  _atom_site_occupancy
  Cd  Cd1       1.0  0.26026  0.19028  0.02752  1.0000
  Cd  Cd2       1.0  0.73975  0.80973  0.97247  1.0000
  P   P1        1.0  0.72689  0.22411  0.11517  1.0000
  P   P2        1.0  0.27311  0.77589  0.88483  1.0000
  H   H1        1.0  0.57368  0.28765  0.46833  1.0000
  H   H2        1.0  0.42632  0.71234  0.53168  1.0000
  H   H3        1.0  0.68692  0.42109  0.64908  1.0000
  H   H4        1.0  0.31309  0.57890  0.35092  1.0000
  H   H5        1.0  0.07825  0.35347  0.63404  1.0000
  H   H6        1.0  0.92175  0.64652  0.36596  1.0000
  H   H7        1.0  0.33515  0.16743  0.42681  1.0000
  H   H8        1.0  0.66485  0.83257  0.57319  1.0000
  H   H9        1.0  0.70064  0.01434  0.29346  1.0000
  H   H10       1.0  0.29936  0.98565  0.70654  1.0000
  H   H11       1.0  0.96500  0.94764  0.19701  1.0000
  H   H12       1.0  0.03500  0.05236  0.80299  1.0000
  H   H13       1.0  0.32813  0.45046  0.16210  1.0000
  H   H14       1.0  0.67186  0.54954  0.83790  1.0000
  H   H15       1.0  0.14238  0.57263  0.08791  1.0000
  H   H16       1.0  0.85762  0.42737  0.91209  1.0000
  H   H17       1.0  0.39070  0.39158  0.80656  1.0000
  H   H18       1.0  0.60930  0.60843  0.19344  1.0000
  H   H19       1.0  0.51623  0.17103  0.77603  1.0000
  H   H20       1.0  0.48377  0.82898  0.22397  1.0000
  C   C1        1.0  0.88834  0.15560  0.35429  1.0000
  C   C2        1.0  0.11165  0.84440  0.64572  1.0000
  C   C3        1.0  0.74137  0.26311  0.46395  1.0000
  C   C4        1.0  0.25862  0.73689  0.53606  1.0000
  C   C5        1.0  0.80446  0.33654  0.56502  1.0000
  C   C6        1.0  0.19554  0.66345  0.43499  1.0000
  C   C7        1.0  0.02133  0.30103  0.55597  1.0000
  C   C8        1.0  0.97868  0.69897  0.44403  1.0000
  C   C9        1.0  0.16444  0.19857  0.44541  1.0000
  C   C10       1.0  0.83556  0.80143  0.55459  1.0000
  C   C11       1.0  0.82944  0.06692  0.24761  1.0000
  C   C12       1.0  0.17056  0.93308  0.75239  1.0000
  N   N1        1.0  0.09934  0.12934  0.34626  1.0000
  N   N2        1.0  0.90066  0.87066  0.65374  1.0000
  O   O1        1.0  0.91748  0.25275  0.01661  1.0000
  O   O2        1.0  0.08252  0.74726  0.98339  1.0000
  O   O3        1.0  0.61643  0.11793  0.04569  1.0000
  O   O4        1.0  0.38357  0.88207  0.95431  1.0000
  O   O5        1.0  0.56718  0.40836  0.18511  1.0000
  O   O6        1.0  0.43282  0.59164  0.81489  1.0000
  O   O7        1.0  0.24337  0.03420  0.24144  1.0000
  O   O8        1.0  0.75663  0.96580  0.75856  1.0000
  O   O9        1.0  0.18228  0.46266  0.14791  1.0000
  O   O10       1.0  0.81772  0.53734  0.85209  1.0000
  O   O11       1.0  0.37190  0.26556  0.80262  1.0000
  O   O12       1.0  0.62810  0.73444  0.19737  1.0000
