data_image0
_chemical_formula_structural       Ni2P2H20C12N2O12
_chemical_formula_sum              "Ni2 P2 H20 C12 N2 O12"
_cell_length_a       6.55335
_cell_length_b       7.38828
_cell_length_c       9.98097
_cell_angle_alpha    87.0411
_cell_angle_beta     76.568
_cell_angle_gamma    70.1512

_space_group_name_H-M_alt    "P 1"
_space_group_IT_number       1

loop_
  _space_group_symop_operation_xyz
  'x, y, z'

loop_
  _atom_site_type_symbol
  _atom_site_label
  _atom_site_symmetry_multiplicity
  _atom_site_fract_x
  _atom_site_fract_y
  _atom_site_fract_z
  _atom_site_occupancy
  Ni  Ni1       1.0  0.26448  0.17626  0.03596  1.0000
  Ni  Ni2       1.0  0.73552  0.82374  0.96403  1.0000
  P   P1        1.0  0.72845  0.21476  0.10910  1.0000
  P   P2        1.0  0.27155  0.78524  0.89090  1.0000
  H   H1        1.0  0.54817  0.27111  0.48784  1.0000
  H   H2        1.0  0.45183  0.72889  0.51216  1.0000
  H   H3        1.0  0.67357  0.40823  0.66256  1.0000
  H   H4        1.0  0.32643  0.59176  0.33745  1.0000
  H   H5        1.0  0.08258  0.35670  0.62842  1.0000
  H   H6        1.0  0.91742  0.64330  0.37158  1.0000
  H   H7        1.0  0.34149  0.18613  0.40500  1.0000
  H   H8        1.0  0.65851  0.81387  0.59500  1.0000
  H   H9        1.0  0.66743  0.01651  0.29896  1.0000
  H   H10       1.0  0.33257  0.98350  0.70103  1.0000
  H   H11       1.0  0.94844  0.93198  0.20340  1.0000
  H   H12       1.0  0.05157  0.06802  0.79660  1.0000
  H   H13       1.0  0.11715  0.55566  0.07851  1.0000
  H   H14       1.0  0.88285  0.44434  0.92149  1.0000
  H   H15       1.0  0.31688  0.44076  0.14951  1.0000
  H   H16       1.0  0.68312  0.55924  0.85049  1.0000
  H   H17       1.0  0.37878  0.39426  0.83496  1.0000
  H   H18       1.0  0.62122  0.60575  0.16503  1.0000
  H   H19       1.0  0.50659  0.17022  0.80240  1.0000
  H   H20       1.0  0.49341  0.82978  0.19760  1.0000
  C   C1        1.0  0.87251  0.15293  0.35607  1.0000
  C   C2        1.0  0.12749  0.84707  0.64393  1.0000
  C   C3        1.0  0.72346  0.25398  0.47356  1.0000
  C   C4        1.0  0.27654  0.74602  0.52645  1.0000
  C   C5        1.0  0.79360  0.32859  0.57242  1.0000
  C   C6        1.0  0.20640  0.67141  0.42758  1.0000
  C   C7        1.0  0.02018  0.30231  0.55262  1.0000
  C   C8        1.0  0.97983  0.69769  0.44738  1.0000
  C   C9        1.0  0.16451  0.20819  0.43386  1.0000
  C   C10       1.0  0.83549  0.79182  0.56614  1.0000
  C   C11       1.0  0.81112  0.06031  0.25126  1.0000
  C   C12       1.0  0.18888  0.93969  0.74874  1.0000
  N   N1        1.0  0.09194  0.13571  0.33862  1.0000
  N   N2        1.0  0.90807  0.86429  0.66138  1.0000
  O   O1        1.0  0.93911  0.23621  0.01334  1.0000
  O   O2        1.0  0.06089  0.76379  0.98665  1.0000
  O   O3        1.0  0.61259  0.10793  0.03834  1.0000
  O   O4        1.0  0.38741  0.89207  0.96166  1.0000
  O   O5        1.0  0.56035  0.40791  0.17315  1.0000
  O   O6        1.0  0.43965  0.59209  0.82685  1.0000
  O   O7        1.0  0.23926  0.04223  0.22804  1.0000
  O   O8        1.0  0.76074  0.95777  0.77196  1.0000
  O   O9        1.0  0.16954  0.44027  0.13473  1.0000
  O   O10       1.0  0.83046  0.55973  0.86527  1.0000
  O   O11       1.0  0.35580  0.26615  0.83275  1.0000
  O   O12       1.0  0.64419  0.73385  0.16725  1.0000
