data_image0
_chemical_formula_structural       Cd2H36C32N8O16
_chemical_formula_sum              "Cd2 H36 C32 N8 O16"
_cell_length_a       8.37093
_cell_length_b       10.3527
_cell_length_c       11.2523
_cell_angle_alpha    89.9996
_cell_angle_beta     92.6466
_cell_angle_gamma    90.0003

_space_group_name_H-M_alt    "P 1"
_space_group_IT_number       1

loop_
  _space_group_symop_operation_xyz
  'x, y, z'

loop_
  _atom_site_type_symbol
  _atom_site_label
  _atom_site_symmetry_multiplicity
  _atom_site_fract_x
  _atom_site_fract_y
  _atom_site_fract_z
  _atom_site_occupancy
  Cd  Cd1       1.0  1.00000  0.00000  1.00000  1.0000
  Cd  Cd2       1.0  0.50000  0.50000  0.50000  1.0000
  H   H1        1.0  0.01565  0.75493  0.57686  1.0000
  H   H2        1.0  0.48435  0.25493  0.92313  1.0000
  H   H3        1.0  0.98435  0.24507  0.42313  1.0000
  H   H4        1.0  0.51565  0.74507  0.07687  1.0000
  H   H5        1.0  0.44850  0.72036  0.82264  1.0000
  H   H6        1.0  0.05150  0.22035  0.67737  1.0000
  H   H7        1.0  0.55150  0.27964  0.17736  1.0000
  H   H8        1.0  0.94850  0.77965  0.32263  1.0000
  H   H9        1.0  0.72659  0.88604  0.80271  1.0000
  H   H10       1.0  0.77340  0.38604  0.69728  1.0000
  H   H11       1.0  0.27340  0.11396  0.19729  1.0000
  H   H12       1.0  0.22660  0.61396  0.30272  1.0000
  H   H13       1.0  0.72145  0.79170  0.67135  1.0000
  H   H14       1.0  0.77855  0.29170  0.82864  1.0000
  H   H15       1.0  0.27855  0.20830  0.32864  1.0000
  H   H16       1.0  0.22145  0.70830  0.17136  1.0000
  H   H17       1.0  0.76975  0.98591  0.54923  1.0000
  H   H18       1.0  0.73024  0.48592  0.95077  1.0000
  H   H19       1.0  0.23025  0.01409  0.45077  1.0000
  H   H20       1.0  0.26976  0.51409  0.04923  1.0000
  H   H21       1.0  0.80654  0.08039  0.67851  1.0000
  H   H22       1.0  0.69346  0.58039  0.82148  1.0000
  H   H23       1.0  0.19346  0.91961  0.32148  1.0000
  H   H24       1.0  0.30655  0.41961  0.17852  1.0000
  H   H25       1.0  0.48324  0.95176  0.60958  1.0000
  H   H26       1.0  0.01676  0.45177  0.89042  1.0000
  H   H27       1.0  0.51676  0.04823  0.39042  1.0000
  H   H28       1.0  0.98324  0.54823  0.10959  1.0000
  H   H29       1.0  0.52823  0.11858  0.59658  1.0000
  H   H30       1.0  0.97177  0.61859  0.90342  1.0000
  H   H31       1.0  0.47177  0.88141  0.40341  1.0000
  H   H32       1.0  0.02824  0.38141  0.09659  1.0000
  H   H33       1.0  0.52644  0.04523  0.73968  1.0000
  H   H34       1.0  0.97356  0.54523  0.76032  1.0000
  H   H35       1.0  0.47356  0.95477  0.26032  1.0000
  H   H36       1.0  0.02644  0.45476  0.23968  1.0000
  C   C1        1.0  0.19579  0.77133  0.72048  1.0000
  C   C2        1.0  0.30422  0.27133  0.77952  1.0000
  C   C3        1.0  0.80422  0.22867  0.27952  1.0000
  C   C4        1.0  0.69578  0.72867  0.22048  1.0000
  C   C5        1.0  0.29414  0.83164  0.93955  1.0000
  C   C6        1.0  0.20587  0.33164  0.56045  1.0000
  C   C7        1.0  0.70587  0.16837  0.06045  1.0000
  C   C8        1.0  0.79413  0.66836  0.43955  1.0000
  C   C9        1.0  0.18358  0.82798  0.83208  1.0000
  C   C10       1.0  0.31643  0.32798  0.66792  1.0000
  C   C11       1.0  0.81643  0.17202  0.16792  1.0000
  C   C12       1.0  0.68357  0.67202  0.33208  1.0000
  C   C13       1.0  0.95064  0.85036  0.73654  1.0000
  C   C14       1.0  0.54936  0.35037  0.76346  1.0000
  C   C15       1.0  0.04936  0.14964  0.26346  1.0000
  C   C16       1.0  0.45064  0.64964  0.23654  1.0000
  C   C17       1.0  0.32603  0.70059  0.66704  1.0000
  C   C18       1.0  0.17398  0.20059  0.83296  1.0000
  C   C19       1.0  0.67397  0.29941  0.33296  1.0000
  C   C20       1.0  0.82602  0.79941  0.16704  1.0000
  C   C21       1.0  0.77731  0.87674  0.71461  1.0000
  C   C22       1.0  0.72269  0.37674  0.78539  1.0000
  C   C23       1.0  0.22268  0.12326  0.28539  1.0000
  C   C24       1.0  0.27731  0.62326  0.21461  1.0000
  C   C25       1.0  0.73600  0.99912  0.64194  1.0000
  C   C26       1.0  0.76400  0.49912  0.85806  1.0000
  C   C27       1.0  0.26400  0.00088  0.35806  1.0000
  C   C28       1.0  0.23600  0.50088  0.14195  1.0000
  C   C29       1.0  0.55821  0.03033  0.64695  1.0000
  C   C30       1.0  0.94179  0.53034  0.85305  1.0000
  C   C31       1.0  0.44179  0.96967  0.35305  1.0000
  C   C32       1.0  0.05821  0.46966  0.14695  1.0000
  N   N1        1.0  0.04844  0.78793  0.66253  1.0000
  N   N2        1.0  0.45156  0.28793  0.83746  1.0000
  N   N3        1.0  0.95156  0.21207  0.33746  1.0000
  N   N4        1.0  0.54844  0.71207  0.16254  1.0000
  N   N5        1.0  0.03251  0.87715  0.83869  1.0000
  N   N6        1.0  0.46749  0.37716  0.66131  1.0000
  N   N7        1.0  0.96749  0.12285  0.16131  1.0000
  N   N8        1.0  0.53251  0.62284  0.33869  1.0000
  O   O1        1.0  0.24875  0.88628  0.03206  1.0000
  O   O2        1.0  0.25126  0.38628  0.46794  1.0000
  O   O3        1.0  0.75126  0.11372  0.96794  1.0000
  O   O4        1.0  0.74874  0.61372  0.53206  1.0000
  O   O5        1.0  0.42990  0.77319  0.93368  1.0000
  O   O6        1.0  0.07011  0.27320  0.56631  1.0000
  O   O7        1.0  0.57011  0.22681  0.06631  1.0000
  O   O8        1.0  0.92989  0.72680  0.43369  1.0000
  O   O9        1.0  0.31083  0.66116  0.56239  1.0000
  O   O10       1.0  0.18919  0.16117  0.93761  1.0000
  O   O11       1.0  0.68918  0.33883  0.43761  1.0000
  O   O12       1.0  0.81081  0.83884  0.06239  1.0000
  O   O13       1.0  0.45645  0.68000  0.73381  1.0000
  O   O14       1.0  0.04356  0.17999  0.76619  1.0000
  O   O15       1.0  0.54355  0.32000  0.26619  1.0000
  O   O16       1.0  0.95644  0.82001  0.23381  1.0000
