data_image0
_chemical_formula_structural       Mn2H24C20N4O12
_chemical_formula_sum              "Mn2 H24 C20 N4 O12"
_cell_length_a       8.25325
_cell_length_b       8.12942
_cell_length_c       8.12941
_cell_angle_alpha    75.913
_cell_angle_beta     89.0363
_cell_angle_gamma    89.0363

_space_group_name_H-M_alt    "P 1"
_space_group_IT_number       1

loop_
  _space_group_symop_operation_xyz
  'x, y, z'

loop_
  _atom_site_type_symbol
  _atom_site_label
  _atom_site_symmetry_multiplicity
  _atom_site_fract_x
  _atom_site_fract_y
  _atom_site_fract_z
  _atom_site_occupancy
  Mn  Mn1       1.0  0.25000  0.15065  0.84935  1.0000
  Mn  Mn2       1.0  0.75000  0.84935  0.15065  1.0000
  H   H1        1.0  0.93725  0.98393  0.78989  1.0000
  H   H2        1.0  0.56275  0.21011  0.01607  1.0000
  H   H3        1.0  0.06275  0.01607  0.21011  1.0000
  H   H4        1.0  0.43725  0.78989  0.98393  1.0000
  H   H5        1.0  0.88088  0.41504  0.41024  1.0000
  H   H6        1.0  0.61912  0.58976  0.58496  1.0000
  H   H7        1.0  0.11912  0.58496  0.58976  1.0000
  H   H8        1.0  0.38088  0.41024  0.41504  1.0000
  H   H9        1.0  0.91407  0.23652  0.32481  1.0000
  H   H10       1.0  0.58593  0.67519  0.76348  1.0000
  H   H11       1.0  0.08593  0.76348  0.67519  1.0000
  H   H12       1.0  0.41407  0.32481  0.23652  1.0000
  H   H13       1.0  0.63061  0.19080  0.38083  1.0000
  H   H14       1.0  0.86939  0.61917  0.80920  1.0000
  H   H15       1.0  0.36939  0.80920  0.61917  1.0000
  H   H16       1.0  0.13061  0.38083  0.19080  1.0000
  H   H17       1.0  0.62873  0.30296  0.54210  1.0000
  H   H18       1.0  0.87128  0.45790  0.69704  1.0000
  H   H19       1.0  0.37128  0.69703  0.45790  1.0000
  H   H20       1.0  0.12872  0.54210  0.30297  1.0000
  H   H21       1.0  0.72295  0.93752  0.56279  1.0000
  H   H22       1.0  0.77705  0.43721  0.06248  1.0000
  H   H23       1.0  0.27705  0.06248  0.43721  1.0000
  H   H24       1.0  0.22295  0.56279  0.93752  1.0000
  C   C1        1.0  0.97256  0.18715  0.58515  1.0000
  C   C2        1.0  0.52744  0.41484  0.81285  1.0000
  C   C3        1.0  0.02744  0.81285  0.41484  1.0000
  C   C4        1.0  0.47255  0.58516  0.18715  1.0000
  C   C5        1.0  0.86963  0.27681  0.43724  1.0000
  C   C6        1.0  0.63037  0.56276  0.72319  1.0000
  C   C7        1.0  0.13037  0.72319  0.56276  1.0000
  C   C8        1.0  0.36963  0.43724  0.27681  1.0000
  C   C9        1.0  0.69824  0.21271  0.48754  1.0000
  C   C10       1.0  0.80176  0.51246  0.78729  1.0000
  C   C11       1.0  0.30176  0.78729  0.51246  1.0000
  C   C12       1.0  0.19824  0.48754  0.21271  1.0000
  C   C13       1.0  0.72341  0.04585  0.62298  1.0000
  C   C14       1.0  0.77659  0.37702  0.95415  1.0000
  C   C15       1.0  0.27659  0.95415  0.37702  1.0000
  C   C16       1.0  0.22341  0.62298  0.04585  1.0000
  C   C17       1.0  0.59301  0.00613  0.76191  1.0000
  C   C18       1.0  0.90699  0.23809  0.99387  1.0000
  C   C19       1.0  0.40699  0.99387  0.23809  1.0000
  C   C20       1.0  0.09301  0.76191  0.00613  1.0000
  N   N1        1.0  0.88520  0.06384  0.68592  1.0000
  N   N2        1.0  0.61480  0.31408  0.93616  1.0000
  N   N3        1.0  0.11480  0.93616  0.31408  1.0000
  N   N4        1.0  0.38520  0.68592  0.06384  1.0000
  O   O1        1.0  0.45084  0.05969  0.72047  1.0000
  O   O2        1.0  0.04916  0.27953  0.94032  1.0000
  O   O3        1.0  0.54916  0.94031  0.27953  1.0000
  O   O4        1.0  0.95084  0.72047  0.05968  1.0000
  O   O5        1.0  0.63168  0.91106  0.90546  1.0000
  O   O6        1.0  0.86832  0.09454  0.08894  1.0000
  O   O7        1.0  0.36832  0.08894  0.09455  1.0000
  O   O8        1.0  0.13168  0.90546  0.91106  1.0000
  O   O9        1.0  0.11755  0.22055  0.60866  1.0000
  O   O10       1.0  0.38245  0.39134  0.77945  1.0000
  O   O11       1.0  0.88245  0.77945  0.39134  1.0000
  O   O12       1.0  0.61755  0.60866  0.22055  1.0000
