data_image0
_chemical_formula_structural       La4H20W4C20S4O32
_chemical_formula_sum              "La4 H20 W4 C20 S4 O32"
_cell_length_a       7.50225
_cell_length_b       7.63058
_cell_length_c       17.1684
_cell_angle_alpha    91.2786
_cell_angle_beta     90
_cell_angle_gamma    89.9998

_space_group_name_H-M_alt    "P 1"
_space_group_IT_number       1

loop_
  _space_group_symop_operation_xyz
  'x, y, z'

loop_
  _atom_site_type_symbol
  _atom_site_label
  _atom_site_symmetry_multiplicity
  _atom_site_fract_x
  _atom_site_fract_y
  _atom_site_fract_z
  _atom_site_occupancy
  La  La1       1.0  0.41260  0.73597  0.34412  1.0000
  La  La2       1.0  0.91260  0.76403  0.65588  1.0000
  La  La3       1.0  0.58740  0.26403  0.65588  1.0000
  La  La4       1.0  0.08740  0.23597  0.34412  1.0000
  H   H1        1.0  0.13332  0.16079  0.11847  1.0000
  H   H2        1.0  0.63332  0.33921  0.88153  1.0000
  H   H3        1.0  0.86668  0.83921  0.88153  1.0000
  H   H4        1.0  0.36667  0.66079  0.11847  1.0000
  H   H5        1.0  0.05067  0.15659  0.97734  1.0000
  H   H6        1.0  0.55067  0.34341  0.02266  1.0000
  H   H7        1.0  0.94934  0.84341  0.02266  1.0000
  H   H8        1.0  0.44933  0.65659  0.97734  1.0000
  H   H9        1.0  0.26601  0.06691  0.87782  1.0000
  H   H10       1.0  0.76601  0.43308  0.12218  1.0000
  H   H11       1.0  0.73399  0.93309  0.12219  1.0000
  H   H12       1.0  0.23399  0.56692  0.87781  1.0000
  H   H13       1.0  0.58480  0.43589  0.23154  1.0000
  H   H14       1.0  0.08480  0.06411  0.76846  1.0000
  H   H15       1.0  0.41520  0.56410  0.76846  1.0000
  H   H16       1.0  0.91520  0.93589  0.23154  1.0000
  H   H17       1.0  0.68974  0.61608  0.22454  1.0000
  H   H18       1.0  0.18974  0.88392  0.77545  1.0000
  H   H19       1.0  0.31026  0.38392  0.77546  1.0000
  H   H20       1.0  0.81026  0.11608  0.22454  1.0000
  W   W1        1.0  0.55514  0.25066  0.41408  1.0000
  W   W2        1.0  0.05514  0.24933  0.58592  1.0000
  W   W3        1.0  0.44486  0.74933  0.58592  1.0000
  W   W4        1.0  0.94486  0.75066  0.41408  1.0000
  C   C1        1.0  0.39704  0.06387  0.09623  1.0000
  C   C2        1.0  0.89704  0.43613  0.90377  1.0000
  C   C3        1.0  0.60296  0.93613  0.90377  1.0000
  C   C4        1.0  0.10296  0.56387  0.09623  1.0000
  C   C5        1.0  0.22849  0.11622  0.07435  1.0000
  C   C6        1.0  0.72849  0.38378  0.92565  1.0000
  C   C7        1.0  0.77151  0.88378  0.92565  1.0000
  C   C8        1.0  0.27151  0.61622  0.07435  1.0000
  C   C9        1.0  0.18264  0.11355  0.99475  1.0000
  C   C10       1.0  0.68264  0.38645  0.00525  1.0000
  C   C11       1.0  0.81737  0.88645  0.00525  1.0000
  C   C12       1.0  0.31736  0.61355  0.99475  1.0000
  C   C13       1.0  0.52493  0.00040  0.04052  1.0000
  C   C14       1.0  0.02493  0.49960  0.95948  1.0000
  C   C15       1.0  0.47507  0.99960  0.95948  1.0000
  C   C16       1.0  0.97507  0.50040  0.04052  1.0000
  C   C17       1.0  0.30329  0.06006  0.93872  1.0000
  C   C18       1.0  0.80329  0.43995  0.06128  1.0000
  C   C19       1.0  0.69671  0.93994  0.06128  1.0000
  C   C20       1.0  0.19671  0.56006  0.93871  1.0000
  S   S1        1.0  0.45614  0.09242  0.19602  1.0000
  S   S2        1.0  0.95614  0.40759  0.80398  1.0000
  S   S3        1.0  0.54386  0.90758  0.80398  1.0000
  S   S4        1.0  0.04386  0.59242  0.19602  1.0000
  O   O1        1.0  0.44871  0.04440  0.39468  1.0000
  O   O2        1.0  0.94871  0.45560  0.60532  1.0000
  O   O3        1.0  0.55129  0.95560  0.60532  1.0000
  O   O4        1.0  0.05129  0.54440  0.39468  1.0000
  O   O5        1.0  0.09666  0.90943  0.37295  1.0000
  O   O6        1.0  0.59666  0.59057  0.62705  1.0000
  O   O7        1.0  0.90334  0.09057  0.62705  1.0000
  O   O8        1.0  0.40334  0.40943  0.37295  1.0000
  O   O9        1.0  0.61034  0.21267  0.19803  1.0000
  O   O10       1.0  0.11035  0.28733  0.80197  1.0000
  O   O11       1.0  0.38966  0.78733  0.80197  1.0000
  O   O12       1.0  0.88965  0.71267  0.19803  1.0000
  O   O13       1.0  0.50305  0.91955  0.22624  1.0000
  O   O14       1.0  0.00305  0.58045  0.77376  1.0000
  O   O15       1.0  0.49695  0.08045  0.77376  1.0000
  O   O16       1.0  0.99695  0.41955  0.22624  1.0000
  O   O17       1.0  0.30014  0.17040  0.23480  1.0000
  O   O18       1.0  0.80014  0.32960  0.76520  1.0000
  O   O19       1.0  0.69986  0.82960  0.76520  1.0000
  O   O20       1.0  0.19986  0.67040  0.23480  1.0000
  O   O21       1.0  0.57326  0.56406  0.23813  1.0000
  O   O22       1.0  0.07326  0.93594  0.76187  1.0000
  O   O23       1.0  0.42674  0.43594  0.76187  1.0000
  O   O24       1.0  0.92674  0.06406  0.23813  1.0000
  O   O25       1.0  0.41648  0.71067  0.48348  1.0000
  O   O26       1.0  0.91648  0.78934  0.51652  1.0000
  O   O27       1.0  0.58352  0.28933  0.51652  1.0000
  O   O28       1.0  0.08352  0.21067  0.48348  1.0000
  O   O29       1.0  0.72987  0.75811  0.36937  1.0000
  O   O30       1.0  0.22987  0.74190  0.63063  1.0000
  O   O31       1.0  0.27013  0.24189  0.63063  1.0000
  O   O32       1.0  0.77013  0.25810  0.36937  1.0000
