data_image0
_chemical_formula_structural       Cd2H30C46N4O12
_chemical_formula_sum              "Cd2 H30 C46 N4 O12"
_cell_length_a       6.80296
_cell_length_b       12.4708
_cell_length_c       14.5084
_cell_angle_alpha    103.391
_cell_angle_beta     100.501
_cell_angle_gamma    97.7331

_space_group_name_H-M_alt    "P 1"
_space_group_IT_number       1

loop_
  _space_group_symop_operation_xyz
  'x, y, z'

loop_
  _atom_site_type_symbol
  _atom_site_label
  _atom_site_symmetry_multiplicity
  _atom_site_fract_x
  _atom_site_fract_y
  _atom_site_fract_z
  _atom_site_occupancy
  Cd  Cd1       1.0  0.19380  0.16468  0.49052  1.0000
  Cd  Cd2       1.0  0.80619  0.83533  0.50948  1.0000
  H   H1        1.0  0.79099  0.09972  0.51864  1.0000
  H   H2        1.0  0.20901  0.90029  0.48136  1.0000
  H   H3        1.0  0.78403  0.04427  0.41117  1.0000
  H   H4        1.0  0.21597  0.95574  0.58883  1.0000
  H   H5        1.0  0.08583  0.22697  0.71286  1.0000
  H   H6        1.0  0.91417  0.77302  0.28713  1.0000
  H   H7        1.0  0.08247  0.39479  0.84578  1.0000
  H   H8        1.0  0.91753  0.60520  0.15422  1.0000
  H   H9        1.0  0.15911  0.58670  0.81922  1.0000
  H   H10       1.0  0.84088  0.41329  0.18078  1.0000
  H   H11       1.0  0.22882  0.70369  0.70475  1.0000
  H   H12       1.0  0.77117  0.29631  0.29525  1.0000
  H   H13       1.0  0.28094  0.71443  0.54287  1.0000
  H   H14       1.0  0.71905  0.28557  0.45713  1.0000
  H   H15       1.0  0.32181  0.61904  0.37891  1.0000
  H   H16       1.0  0.67819  0.38096  0.62109  1.0000
  H   H17       1.0  0.31829  0.43821  0.25595  1.0000
  H   H18       1.0  0.68170  0.56179  0.74405  1.0000
  H   H19       1.0  0.26089  0.25627  0.30410  1.0000
  H   H20       1.0  0.73910  0.74373  0.69589  1.0000
  H   H21       1.0  0.45905  0.68300  0.18504  1.0000
  H   H22       1.0  0.54095  0.31700  0.81497  1.0000
  H   H23       1.0  0.98156  0.78262  0.00257  1.0000
  H   H24       1.0  0.01844  0.21738  0.99743  1.0000
  H   H25       1.0  0.98227  0.94528  0.14267  1.0000
  H   H26       1.0  0.01773  0.05472  0.85732  1.0000
  H   H27       1.0  0.16928  0.43389  0.03787  1.0000
  H   H28       1.0  0.83073  0.56610  0.96214  1.0000
  H   H29       1.0  0.57069  0.69218  0.97678  1.0000
  H   H30       1.0  0.42931  0.30781  0.02322  1.0000
  C   C1        1.0  0.11651  0.31131  0.70331  1.0000
  C   C2        1.0  0.88349  0.68868  0.29669  1.0000
  C   C3        1.0  0.11667  0.40619  0.77800  1.0000
  C   C4        1.0  0.88333  0.59380  0.22200  1.0000
  C   C5        1.0  0.15925  0.51145  0.76304  1.0000
  C   C6        1.0  0.84075  0.48854  0.23696  1.0000
  C   C7        1.0  0.19843  0.52208  0.67293  1.0000
  C   C8        1.0  0.80157  0.47792  0.32707  1.0000
  C   C9        1.0  0.23177  0.62766  0.65008  1.0000
  C   C10       1.0  0.76823  0.37233  0.34992  1.0000
  C   C11       1.0  0.26141  0.63379  0.56064  1.0000
  C   C12       1.0  0.73859  0.36621  0.43936  1.0000
  C   C13       1.0  0.26341  0.53441  0.48810  1.0000
  C   C14       1.0  0.73659  0.46559  0.51190  1.0000
  C   C15       1.0  0.29556  0.53766  0.39516  1.0000
  C   C16       1.0  0.70444  0.46234  0.60484  1.0000
  C   C17       1.0  0.29428  0.43861  0.32823  1.0000
  C   C18       1.0  0.70572  0.56139  0.67177  1.0000
  C   C19       1.0  0.26387  0.33691  0.35430  1.0000
  C   C20       1.0  0.73613  0.66309  0.64569  1.0000
  C   C21       1.0  0.23282  0.42795  0.50825  1.0000
  C   C22       1.0  0.76719  0.57206  0.49175  1.0000
  C   C23       1.0  0.19562  0.42139  0.60189  1.0000
  C   C24       1.0  0.80438  0.57861  0.39811  1.0000
  C   C25       1.0  0.20550  0.00188  0.32186  1.0000
  C   C26       1.0  0.79450  0.99813  0.67814  1.0000
  C   C27       1.0  0.21768  0.90487  0.24134  1.0000
  C   C28       1.0  0.78233  0.09514  0.75866  1.0000
  C   C29       1.0  0.35348  0.83100  0.25355  1.0000
  C   C30       1.0  0.64652  0.16901  0.74645  1.0000
  C   C31       1.0  0.35404  0.74038  0.17559  1.0000
  C   C32       1.0  0.64597  0.25962  0.82441  1.0000
  C   C33       1.0  0.21943  0.72367  0.08651  1.0000
  C   C34       1.0  0.78058  0.27634  0.91349  1.0000
  C   C35       1.0  0.08396  0.79671  0.07313  1.0000
  C   C36       1.0  0.91604  0.20329  0.92687  1.0000
  C   C37       1.0  0.08539  0.88663  0.15048  1.0000
  C   C38       1.0  0.91462  0.11337  0.84952  1.0000
  C   C39       1.0  0.50608  0.84310  0.34692  1.0000
  C   C40       1.0  0.49393  0.15691  0.65308  1.0000
  C   C41       1.0  0.35785  0.56895  0.00840  1.0000
  C   C42       1.0  0.64214  0.43105  0.99160  1.0000
  C   C43       1.0  0.31545  0.46194  0.02223  1.0000
  C   C44       1.0  0.68455  0.53806  0.97777  1.0000
  C   C45       1.0  0.54142  0.60795  0.98669  1.0000
  C   C46       1.0  0.45858  0.39204  0.01331  1.0000
  N   N1        1.0  0.23519  0.33202  0.44166  1.0000
  N   N2        1.0  0.76481  0.66798  0.55833  1.0000
  N   N3        1.0  0.15575  0.31901  0.61844  1.0000
  N   N4        1.0  0.84425  0.68099  0.38155  1.0000
  O   O1        1.0  0.84044  0.11564  0.46209  1.0000
  O   O2        1.0  0.15956  0.88437  0.53791  1.0000
  O   O3        1.0  0.27122  0.99768  0.40994  1.0000
  O   O4        1.0  0.72878  0.00233  0.59006  1.0000
  O   O5        1.0  0.13025  0.08299  0.30169  1.0000
  O   O6        1.0  0.86974  0.91701  0.69831  1.0000
  O   O7        1.0  0.68194  0.90149  0.35843  1.0000
  O   O8        1.0  0.31807  0.09851  0.64156  1.0000
  O   O9        1.0  0.45787  0.78605  0.40388  1.0000
  O   O10       1.0  0.54214  0.21396  0.59612  1.0000
  O   O11       1.0  0.20514  0.63317  0.00756  1.0000
  O   O12       1.0  0.79487  0.36682  0.99245  1.0000
