data_image0
_chemical_formula_structural       Zn2H30C42N4O12
_chemical_formula_sum              "Zn2 H30 C42 N4 O12"
_cell_length_a       9.44166
_cell_length_b       9.95724
_cell_length_c       10.5159
_cell_angle_alpha    91.9184
_cell_angle_beta     96.6948
_cell_angle_gamma    103.546

_space_group_name_H-M_alt    "P 1"
_space_group_IT_number       1

loop_
  _space_group_symop_operation_xyz
  'x, y, z'

loop_
  _atom_site_type_symbol
  _atom_site_label
  _atom_site_symmetry_multiplicity
  _atom_site_fract_x
  _atom_site_fract_y
  _atom_site_fract_z
  _atom_site_occupancy
  Zn  Zn1       1.0  0.16287  0.22342  0.09587  1.0000
  Zn  Zn2       1.0  0.83713  0.77658  0.90414  1.0000
  H   H1        1.0  0.34748  0.11629  0.00792  1.0000
  H   H2        1.0  0.65251  0.88372  0.99208  1.0000
  H   H3        1.0  0.34535  0.08669  0.16161  1.0000
  H   H4        1.0  0.65465  0.91331  0.83839  1.0000
  H   H5        1.0  0.47094  0.40915  0.11104  1.0000
  H   H6        1.0  0.52905  0.59085  0.88896  1.0000
  H   H7        1.0  0.58785  0.66602  0.14518  1.0000
  H   H8        1.0  0.41214  0.33398  0.85482  1.0000
  H   H9        1.0  0.42940  0.82529  0.19747  1.0000
  H   H10       1.0  0.57058  0.17471  0.80251  1.0000
  H   H11       1.0  0.16314  0.72708  0.20197  1.0000
  H   H12       1.0  0.83684  0.27292  0.79801  1.0000
  H   H13       1.0  0.95197  0.62517  0.23491  1.0000
  H   H14       1.0  0.04802  0.37483  0.76508  1.0000
  H   H15       1.0  0.69559  0.49234  0.23878  1.0000
  H   H16       1.0  0.30440  0.50765  0.76122  1.0000
  H   H17       1.0  0.62082  0.24099  0.15648  1.0000
  H   H18       1.0  0.37916  0.75900  0.84352  1.0000
  H   H19       1.0  0.81641  0.13193  0.08926  1.0000
  H   H20       1.0  0.18358  0.86806  0.91074  1.0000
  H   H21       1.0  0.68835  0.73618  0.35827  1.0000
  H   H22       1.0  0.31166  0.26383  0.64174  1.0000
  H   H23       1.0  0.06382  0.74653  0.63678  1.0000
  H   H24       1.0  0.93619  0.25347  0.36323  1.0000
  H   H25       1.0  0.22464  0.89734  0.49915  1.0000
  H   H26       1.0  0.77538  0.10265  0.50085  1.0000
  H   H27       1.0  0.71210  0.39417  0.48540  1.0000
  H   H28       1.0  0.28791  0.60584  0.51460  1.0000
  H   H29       1.0  0.54602  0.74438  0.58881  1.0000
  H   H30       1.0  0.45400  0.25563  0.41120  1.0000
  C   C1        1.0  0.40839  0.48448  0.13174  1.0000
  C   C2        1.0  0.59160  0.51552  0.86826  1.0000
  C   C3        1.0  0.47183  0.62560  0.15222  1.0000
  C   C4        1.0  0.52816  0.37439  0.84778  1.0000
  C   C5        1.0  0.38337  0.71425  0.17963  1.0000
  C   C6        1.0  0.61662  0.28575  0.82035  1.0000
  C   C7        1.0  0.23410  0.65902  0.18326  1.0000
  C   C8        1.0  0.76588  0.34099  0.81672  1.0000
  C   C9        1.0  0.17735  0.51631  0.16034  1.0000
  C   C10       1.0  0.82264  0.48369  0.83965  1.0000
  C   C11       1.0  0.02053  0.44787  0.16139  1.0000
  C   C12       1.0  0.97945  0.55213  0.83860  1.0000
  C   C13       1.0  0.91932  0.51613  0.20308  1.0000
  C   C14       1.0  0.08066  0.48386  0.79691  1.0000
  C   C15       1.0  0.77475  0.44148  0.20308  1.0000
  C   C16       1.0  0.22524  0.55851  0.79691  1.0000
  C   C17       1.0  0.73354  0.30220  0.15991  1.0000
  C   C18       1.0  0.26645  0.69780  0.84009  1.0000
  C   C19       1.0  0.84129  0.24145  0.11996  1.0000
  C   C20       1.0  0.15869  0.75854  0.88003  1.0000
  C   C21       1.0  0.14489  0.99447  0.27149  1.0000
  C   C22       1.0  0.85512  0.00553  0.72851  1.0000
  C   C23       1.0  0.04850  0.89905  0.35058  1.0000
  C   C24       1.0  0.95151  0.10095  0.64942  1.0000
  C   C25       1.0  0.89658  0.85211  0.31106  1.0000
  C   C26       1.0  0.10343  0.14788  0.68895  1.0000
  C   C27       1.0  0.80584  0.77088  0.38943  1.0000
  C   C28       1.0  0.19418  0.22912  0.61058  1.0000
  C   C29       1.0  0.86725  0.73142  0.50543  1.0000
  C   C30       1.0  0.13277  0.26858  0.49458  1.0000
  C   C31       1.0  0.01827  0.77587  0.54514  1.0000
  C   C32       1.0  0.98175  0.22413  0.45487  1.0000
  C   C33       1.0  0.10718  0.85980  0.46811  1.0000
  C   C34       1.0  0.89283  0.14019  0.53190  1.0000
  C   C35       1.0  0.83132  0.86601  0.17566  1.0000
  C   C36       1.0  0.16870  0.13399  0.82434  1.0000
  C   C37       1.0  0.64193  0.57613  0.53981  1.0000
  C   C38       1.0  0.35809  0.42388  0.46020  1.0000
  C   C39       1.0  0.61828  0.43947  0.49074  1.0000
  C   C40       1.0  0.38174  0.56054  0.50927  1.0000
  C   C41       1.0  0.52474  0.63758  0.54983  1.0000
  C   C42       1.0  0.47527  0.36243  0.45018  1.0000
  N   N1        1.0  0.98074  0.31250  0.12172  1.0000
  N   N2        1.0  0.01925  0.68749  0.87828  1.0000
  N   N3        1.0  0.26508  0.43152  0.13570  1.0000
  N   N4        1.0  0.73491  0.56848  0.86429  1.0000
  O   O1        1.0  0.78531  0.64784  0.58608  1.0000
  O   O2        1.0  0.21471  0.35217  0.41394  1.0000
  O   O3        1.0  0.71928  0.91379  0.15334  1.0000
  O   O4        1.0  0.28072  0.08621  0.84667  1.0000
  O   O5        1.0  0.89505  0.81238  0.09214  1.0000
  O   O6        1.0  0.10496  0.18762  0.90787  1.0000
  O   O7        1.0  0.08055  0.07597  0.20725  1.0000
  O   O8        1.0  0.91946  0.92403  0.79276  1.0000
  O   O9        1.0  0.27842  0.99144  0.27371  1.0000
  O   O10       1.0  0.72158  0.00855  0.72628  1.0000
  O   O11       1.0  0.36792  0.16044  0.09748  1.0000
  O   O12       1.0  0.63208  0.83957  0.90252  1.0000
