data_image0
_chemical_formula_structural       Co2H36C44N8O8
_chemical_formula_sum              "Co2 H36 C44 N8 O8"
_cell_length_a       10.6317
_cell_length_b       10.7442
_cell_length_c       11.6213
_cell_angle_alpha    110.475
_cell_angle_beta     101.2
_cell_angle_gamma    110.56

_space_group_name_H-M_alt    "P 1"
_space_group_IT_number       1

loop_
  _space_group_symop_operation_xyz
  'x, y, z'

loop_
  _atom_site_type_symbol
  _atom_site_label
  _atom_site_symmetry_multiplicity
  _atom_site_fract_x
  _atom_site_fract_y
  _atom_site_fract_z
  _atom_site_occupancy
  Co  Co1       1.0  0.72478  0.25924  0.83476  1.0000
  Co  Co2       1.0  0.27521  0.74076  0.16523  1.0000
  H   H1        1.0  0.59697  0.56596  0.73726  1.0000
  H   H2        1.0  0.40303  0.43404  0.26274  1.0000
  H   H3        1.0  0.47997  0.30385  0.57194  1.0000
  H   H4        1.0  0.52002  0.69614  0.42806  1.0000
  H   H5        1.0  0.55392  0.92706  0.59669  1.0000
  H   H6        1.0  0.44608  0.07294  0.40331  1.0000
  H   H7        1.0  0.85645  0.09540  0.97560  1.0000
  H   H8        1.0  0.14355  0.90461  0.02440  1.0000
  H   H9        1.0  0.05609  0.19199  0.72472  1.0000
  H   H10       1.0  0.94391  0.80801  0.27528  1.0000
  H   H11       1.0  0.80856  0.05453  0.56381  1.0000
  H   H12       1.0  0.19144  0.94547  0.43619  1.0000
  H   H13       1.0  0.40847  0.03417  0.60457  1.0000
  H   H14       1.0  0.59153  0.96583  0.39543  1.0000
  H   H15       1.0  0.55407  0.42839  0.95428  1.0000
  H   H16       1.0  0.44593  0.57160  0.04572  1.0000
  H   H17       1.0  0.77142  0.57047  0.52231  1.0000
  H   H18       1.0  0.22859  0.42953  0.47770  1.0000
  H   H19       1.0  0.91250  0.84576  0.62941  1.0000
  H   H20       1.0  0.08750  0.15424  0.37059  1.0000
  H   H21       1.0  0.16495  0.96778  0.78924  1.0000
  H   H22       1.0  0.83505  0.03222  0.21076  1.0000
  H   H23       1.0  0.26977  0.81091  0.83874  1.0000
  H   H24       1.0  0.73023  0.18909  0.16126  1.0000
  H   H25       1.0  0.90183  0.30638  0.51684  1.0000
  H   H26       1.0  0.09817  0.69362  0.48317  1.0000
  H   H27       1.0  0.75341  0.33634  0.46733  1.0000
  H   H28       1.0  0.24659  0.66366  0.53268  1.0000
  H   H29       1.0  0.25443  0.54655  0.73358  1.0000
  H   H30       1.0  0.74557  0.45345  0.26642  1.0000
  H   H31       1.0  0.08649  0.39412  0.68151  1.0000
  H   H32       1.0  0.91351  0.60588  0.31848  1.0000
  H   H33       1.0  0.77876  0.81425  0.85173  1.0000
  H   H34       1.0  0.22124  0.18575  0.14827  1.0000
  H   H35       1.0  0.28389  0.34365  0.83726  1.0000
  H   H36       1.0  0.71611  0.65635  0.16274  1.0000
  C   C1        1.0  0.55529  0.53861  0.63342  1.0000
  C   C2        1.0  0.44472  0.46140  0.36659  1.0000
  C   C3        1.0  0.56743  0.65168  0.59509  1.0000
  C   C4        1.0  0.43256  0.34832  0.40492  1.0000
  C   C5        1.0  0.48927  0.38971  0.54012  1.0000
  C   C6        1.0  0.51073  0.61028  0.45989  1.0000
  C   C7        1.0  0.63721  0.80881  0.68957  1.0000
  C   C8        1.0  0.36279  0.19119  0.31043  1.0000
  C   C9        1.0  0.62379  0.92807  0.67888  1.0000
  C   C10       1.0  0.37621  0.07193  0.32112  1.0000
  C   C11       1.0  0.78045  0.01944  0.87568  1.0000
  C   C12       1.0  0.21955  0.98056  0.12432  1.0000
  C   C13       1.0  0.03278  0.10911  0.62592  1.0000
  C   C14       1.0  0.96721  0.89089  0.37407  1.0000
  C   C15       1.0  0.14271  0.07914  0.59186  1.0000
  C   C16       1.0  0.85729  0.92087  0.40814  1.0000
  C   C17       1.0  0.89263  0.03113  0.53544  1.0000
  C   C18       1.0  0.10737  0.96887  0.46455  1.0000
  C   C19       1.0  0.28989  0.15726  0.68449  1.0000
  C   C20       1.0  0.71011  0.84274  0.31551  1.0000
  C   C21       1.0  0.40558  0.12663  0.67981  1.0000
  C   C22       1.0  0.59443  0.87338  0.32019  1.0000
  C   C23       1.0  0.48235  0.32966  0.86211  1.0000
  C   C24       1.0  0.51765  0.67034  0.13789  1.0000
  C   C25       1.0  0.88021  0.62408  0.59431  1.0000
  C   C26       1.0  0.11979  0.37592  0.40569  1.0000
  C   C27       1.0  0.95919  0.77902  0.65450  1.0000
  C   C28       1.0  0.04081  0.22098  0.34551  1.0000
  C   C29       1.0  0.10006  0.84703  0.74402  1.0000
  C   C30       1.0  0.89994  0.15298  0.25598  1.0000
  C   C31       1.0  0.15888  0.75856  0.77095  1.0000
  C   C32       1.0  0.84111  0.24143  0.22905  1.0000
  C   C33       1.0  0.07929  0.60261  0.71256  1.0000
  C   C34       1.0  0.92071  0.39739  0.28744  1.0000
  C   C35       1.0  0.93714  0.53407  0.62270  1.0000
  C   C36       1.0  0.06286  0.46593  0.37730  1.0000
  C   C37       1.0  0.84277  0.36782  0.55455  1.0000
  C   C38       1.0  0.15723  0.63218  0.44546  1.0000
  C   C39       1.0  0.77730  0.30303  0.63814  1.0000
  C   C40       1.0  0.22271  0.69697  0.36187  1.0000
  C   C41       1.0  0.14939  0.51424  0.74689  1.0000
  C   C42       1.0  0.85061  0.48575  0.25311  1.0000
  C   C43       1.0  0.18456  0.53739  0.88926  1.0000
  C   C44       1.0  0.81544  0.46261  0.11073  1.0000
  N   N1        1.0  0.73656  0.87008  0.81563  1.0000
  N   N2        1.0  0.26343  0.12993  0.18437  1.0000
  N   N3        1.0  0.71260  0.05722  0.79449  1.0000
  N   N4        1.0  0.28739  0.94279  0.20551  1.0000
  N   N5        1.0  0.34159  0.28583  0.80149  1.0000
  N   N6        1.0  0.65842  0.71417  0.19851  1.0000
  N   N7        1.0  0.52473  0.23528  0.79081  1.0000
  N   N8        1.0  0.47526  0.76471  0.20919  1.0000
  O   O1        1.0  0.18639  0.65348  0.97377  1.0000
  O   O2        1.0  0.81361  0.34651  0.02622  1.0000
  O   O3        1.0  0.21785  0.44670  0.91744  1.0000
  O   O4        1.0  0.78215  0.55329  0.08255  1.0000
  O   O5        1.0  0.84205  0.37619  0.76469  1.0000
  O   O6        1.0  0.15795  0.62381  0.23531  1.0000
  O   O7        1.0  0.66513  0.17973  0.58407  1.0000
  O   O8        1.0  0.33486  0.82027  0.41594  1.0000
