data_image0
_chemical_formula_structural       La2H28C24N6O20
_chemical_formula_sum              "La2 H28 C24 N6 O20"
_cell_length_a       4.62778
_cell_length_b       11.8961
_cell_length_c       15.6911
_cell_angle_alpha    85.4912
_cell_angle_beta     84.7064
_cell_angle_gamma    83.579

_space_group_name_H-M_alt    "P 1"
_space_group_IT_number       1

loop_
  _space_group_symop_operation_xyz
  'x, y, z'

loop_
  _atom_site_type_symbol
  _atom_site_label
  _atom_site_symmetry_multiplicity
  _atom_site_fract_x
  _atom_site_fract_y
  _atom_site_fract_z
  _atom_site_occupancy
  La  La1       1.0  0.17309  0.22846  0.32828  1.0000
  La  La2       1.0  0.82692  0.77154  0.67172  1.0000
  H   H1        1.0  0.54237  0.89470  0.43793  1.0000
  H   H2        1.0  0.45761  0.10528  0.56207  1.0000
  H   H3        1.0  0.52114  0.89562  0.32481  1.0000
  H   H4        1.0  0.47887  0.10438  0.67518  1.0000
  H   H5        1.0  0.11198  0.84166  0.24866  1.0000
  H   H6        1.0  0.88803  0.15834  0.75134  1.0000
  H   H7        1.0  0.82903  0.75567  0.25039  1.0000
  H   H8        1.0  0.17099  0.24434  0.74961  1.0000
  H   H9        1.0  0.45211  0.70414  0.47075  1.0000
  H   H10       1.0  0.54790  0.29586  0.52925  1.0000
  H   H11       1.0  0.19340  0.60417  0.48099  1.0000
  H   H12       1.0  0.80662  0.39583  0.51901  1.0000
  H   H13       1.0  0.75887  0.55074  0.39956  1.0000
  H   H14       1.0  0.24114  0.44926  0.60043  1.0000
  H   H15       1.0  0.71711  0.54155  0.28933  1.0000
  H   H16       1.0  0.28289  0.45845  0.71067  1.0000
  H   H17       1.0  0.99560  0.16007  0.05764  1.0000
  H   H18       1.0  0.00440  0.83993  0.94236  1.0000
  H   H19       1.0  0.04083  0.03491  0.12699  1.0000
  H   H20       1.0  0.95916  0.96509  0.87300  1.0000
  H   H21       1.0  0.43365  0.19197  0.00921  1.0000
  H   H22       1.0  0.56635  0.80804  0.99079  1.0000
  H   H23       1.0  0.73063  0.14920  0.93571  1.0000
  H   H24       1.0  0.26935  0.85081  0.06428  1.0000
  H   H25       1.0  0.06744  0.38144  0.17368  1.0000
  H   H26       1.0  0.93255  0.61855  0.82632  1.0000
  H   H27       1.0  0.24496  0.47533  0.20718  1.0000
  H   H28       1.0  0.75503  0.52466  0.79281  1.0000
  C   C1        1.0  0.77694  0.01828  0.36322  1.0000
  C   C2        1.0  0.22305  0.98172  0.63679  1.0000
  C   C3        1.0  0.66755  0.90092  0.37525  1.0000
  C   C4        1.0  0.33245  0.09908  0.62475  1.0000
  C   C5        1.0  0.01130  0.77163  0.28617  1.0000
  C   C6        1.0  0.98871  0.22837  0.71383  1.0000
  C   C7        1.0  0.23166  0.66814  0.28453  1.0000
  C   C8        1.0  0.76834  0.33186  0.71546  1.0000
  C   C9        1.0  0.02557  0.76944  0.44271  1.0000
  C   C10       1.0  0.97443  0.23056  0.55730  1.0000
  C   C11       1.0  0.27216  0.67572  0.43971  1.0000
  C   C12       1.0  0.72786  0.32428  0.56029  1.0000
  C   C13       1.0  0.59976  0.54187  0.35331  1.0000
  C   C14       1.0  0.40025  0.45813  0.64669  1.0000
  C   C15       1.0  0.48110  0.42695  0.37282  1.0000
  C   C16       1.0  0.51887  0.57305  0.62719  1.0000
  C   C17       1.0  0.72001  0.16011  0.17547  1.0000
  C   C18       1.0  0.28000  0.83989  0.82453  1.0000
  C   C19       1.0  0.87902  0.09893  0.09963  1.0000
  C   C20       1.0  0.12097  0.90108  0.90036  1.0000
  C   C21       1.0  0.64424  0.93585  0.06985  1.0000
  C   C22       1.0  0.35573  0.06417  0.93015  1.0000
  C   C23       1.0  0.55885  0.11704  0.98166  1.0000
  C   C24       1.0  0.44113  0.88297  0.01834  1.0000
  N   N1        1.0  0.90085  0.80769  0.37083  1.0000
  N   N2        1.0  0.09915  0.19231  0.62917  1.0000
  N   N3        1.0  0.37496  0.63735  0.35546  1.0000
  N   N4        1.0  0.62505  0.36265  0.64454  1.0000
  N   N5        1.0  0.69271  0.04500  0.04953  1.0000
  N   N6        1.0  0.30728  0.95501  0.95047  1.0000
  O   O1        1.0  0.59373  0.10184  0.38223  1.0000
  O   O2        1.0  0.40626  0.89815  0.61777  1.0000
  O   O3        1.0  0.03975  0.02588  0.33475  1.0000
  O   O4        1.0  0.96027  0.97412  0.66527  1.0000
  O   O5        1.0  0.93710  0.80764  0.51378  1.0000
  O   O6        1.0  0.06289  0.19236  0.48622  1.0000
  O   O7        1.0  0.28569  0.61839  0.21682  1.0000
  O   O8        1.0  0.71431  0.38161  0.78318  1.0000
  O   O9        1.0  0.21668  0.42263  0.40113  1.0000
  O   O10       1.0  0.78333  0.57738  0.59888  1.0000
  O   O11       1.0  0.65418  0.33884  0.35700  1.0000
  O   O12       1.0  0.34582  0.66115  0.64301  1.0000
  O   O13       1.0  0.86358  0.22944  0.20743  1.0000
  O   O14       1.0  0.13642  0.77056  0.79257  1.0000
  O   O15       1.0  0.46729  0.13657  0.20221  1.0000
  O   O16       1.0  0.53271  0.86343  0.79780  1.0000
  O   O17       1.0  0.76340  0.87608  0.12803  1.0000
  O   O18       1.0  0.23656  0.12393  0.87197  1.0000
  O   O19       1.0  0.22411  0.39310  0.20847  1.0000
  O   O20       1.0  0.77591  0.60690  0.79152  1.0000
