data_image0
_chemical_formula_structural       Pr2H28C24N6O20
_chemical_formula_sum              "Pr2 H28 C24 N6 O20"
_cell_length_a       8.39943
_cell_length_b       9.41318
_cell_length_c       10.8078
_cell_angle_alpha    106.359
_cell_angle_beta     99.178
_cell_angle_gamma    93.652

_space_group_name_H-M_alt    "P 1"
_space_group_IT_number       1

loop_
  _space_group_symop_operation_xyz
  'x, y, z'

loop_
  _atom_site_type_symbol
  _atom_site_label
  _atom_site_symmetry_multiplicity
  _atom_site_fract_x
  _atom_site_fract_y
  _atom_site_fract_z
  _atom_site_occupancy
  Pr  Pr1       1.0  0.75257  0.98812  0.50651  1.0000
  Pr  Pr2       1.0  0.24743  0.01188  0.49349  1.0000
  H   H1        1.0  0.95390  0.27397  0.83659  1.0000
  H   H2        1.0  0.04610  0.72603  0.16341  1.0000
  H   H3        1.0  0.00056  0.11692  0.88974  1.0000
  H   H4        1.0  0.99943  0.88308  0.11026  1.0000
  H   H5        1.0  0.35024  0.17225  0.01777  1.0000
  H   H6        1.0  0.64976  0.82775  0.98223  1.0000
  H   H7        1.0  0.17596  0.16169  0.08720  1.0000
  H   H8        1.0  0.82404  0.83832  0.91280  1.0000
  H   H9        1.0  0.43217  0.57892  0.04810  1.0000
  H   H10       1.0  0.56783  0.42108  0.95190  1.0000
  H   H11       1.0  0.27386  0.65576  0.12368  1.0000
  H   H12       1.0  0.72614  0.34424  0.87632  1.0000
  H   H13       1.0  0.58750  0.63378  0.29867  1.0000
  H   H14       1.0  0.41250  0.36622  0.70133  1.0000
  H   H15       1.0  0.48781  0.53980  0.39224  1.0000
  H   H16       1.0  0.51219  0.46020  0.60776  1.0000
  H   H17       1.0  0.86896  0.54001  0.31125  1.0000
  H   H18       1.0  0.13104  0.45999  0.68875  1.0000
  H   H19       1.0  0.74153  0.46078  0.39656  1.0000
  H   H20       1.0  0.25847  0.53922  0.60344  1.0000
  H   H21       1.0  0.10402  0.70004  0.81750  1.0000
  H   H22       1.0  0.89598  0.29996  0.18249  1.0000
  H   H23       1.0  0.98891  0.81917  0.74343  1.0000
  H   H24       1.0  0.01109  0.18083  0.25657  1.0000
  H   H25       1.0  0.59049  0.01657  0.75599  1.0000
  H   H26       1.0  0.40951  0.98343  0.24400  1.0000
  H   H27       1.0  0.65429  0.86188  0.71815  1.0000
  H   H28       1.0  0.34571  0.13812  0.28185  1.0000
  C   C1        1.0  0.12359  0.15277  0.73950  1.0000
  C   C2        1.0  0.87641  0.84723  0.26050  1.0000
  C   C3        1.0  0.05312  0.21129  0.86287  1.0000
  C   C4        1.0  0.94688  0.78871  0.13713  1.0000
  C   C5        1.0  0.26035  0.23999  0.06349  1.0000
  C   C6        1.0  0.73965  0.76001  0.93652  1.0000
  C   C7        1.0  0.34577  0.34892  0.19184  1.0000
  C   C8        1.0  0.65424  0.65108  0.80816  1.0000
  C   C9        1.0  0.19903  0.45155  0.97718  1.0000
  C   C10       1.0  0.80097  0.54845  0.02282  1.0000
  C   C11       1.0  0.32553  0.55095  0.08818  1.0000
  C   C12       1.0  0.67448  0.44905  0.91181  1.0000
  C   C13       1.0  0.46878  0.59737  0.31658  1.0000
  C   C14       1.0  0.53122  0.40263  0.68342  1.0000
  C   C15       1.0  0.38667  0.73424  0.36930  1.0000
  C   C16       1.0  0.61334  0.26576  0.63070  1.0000
  C   C17       1.0  0.91851  0.63364  0.51862  1.0000
  C   C18       1.0  0.08148  0.36636  0.48138  1.0000
  C   C19       1.0  0.86828  0.50103  0.39815  1.0000
  C   C20       1.0  0.13172  0.49897  0.60185  1.0000
  C   C21       1.0  0.08710  0.74726  0.73503  1.0000
  C   C22       1.0  0.91290  0.25274  0.26497  1.0000
  C   C23       1.0  0.24318  0.84798  0.74166  1.0000
  C   C24       1.0  0.75682  0.15201  0.25834  1.0000
  N   N1        1.0  0.16934  0.30747  0.97281  1.0000
  N   N2        1.0  0.83066  0.69254  0.02719  1.0000
  N   N3        1.0  0.37386  0.49319  0.19806  1.0000
  N   N4        1.0  0.62615  0.50681  0.80194  1.0000
  N   N5        1.0  0.03670  0.62498  0.61378  1.0000
  N   N6        1.0  0.96330  0.37502  0.38622  1.0000
  O   O1        1.0  0.02615  0.06433  0.63871  1.0000
  O   O2        1.0  0.97385  0.93567  0.36129  1.0000
  O   O3        1.0  0.26858  0.18882  0.73532  1.0000
  O   O4        1.0  0.73142  0.81118  0.26468  1.0000
  O   O5        1.0  0.12726  0.50557  0.89438  1.0000
  O   O6        1.0  0.87274  0.49443  0.10561  1.0000
  O   O7        1.0  0.39214  0.30429  0.28890  1.0000
  O   O8        1.0  0.60786  0.69571  0.71110  1.0000
  O   O9        1.0  0.23514  0.73375  0.34579  1.0000
  O   O10       1.0  0.76487  0.26625  0.65421  1.0000
  O   O11       1.0  0.48085  0.85186  0.43986  1.0000
  O   O12       1.0  0.51915  0.14815  0.56014  1.0000
  O   O13       1.0  0.84228  0.74590  0.52638  1.0000
  O   O14       1.0  0.15772  0.25410  0.47362  1.0000
  O   O15       1.0  0.27497  0.85576  0.63082  1.0000
  O   O16       1.0  0.72503  0.14424  0.36918  1.0000
  O   O17       1.0  0.32136  0.91719  0.85267  1.0000
  O   O18       1.0  0.67865  0.08280  0.14733  1.0000
  O   O19       1.0  0.68251  0.97038  0.72347  1.0000
  O   O20       1.0  0.31749  0.02962  0.27653  1.0000
