data_image0
_chemical_formula_structural       Ho2H28C24N6O20
_chemical_formula_sum              "Ho2 H28 C24 N6 O20"
_cell_length_a       7.79959
_cell_length_b       10.6246
_cell_length_c       12.0144
_cell_angle_alpha    64.2881
_cell_angle_beta     69.1612
_cell_angle_gamma    71.7298

_space_group_name_H-M_alt    "P 1"
_space_group_IT_number       1

loop_
  _space_group_symop_operation_xyz
  'x, y, z'

loop_
  _atom_site_type_symbol
  _atom_site_label
  _atom_site_symmetry_multiplicity
  _atom_site_fract_x
  _atom_site_fract_y
  _atom_site_fract_z
  _atom_site_occupancy
  Ho  Ho1       1.0  0.23549  0.04796  0.49674  1.0000
  Ho  Ho2       1.0  0.76452  0.95204  0.50326  1.0000
  H   H1        1.0  0.99739  0.38880  0.71360  1.0000
  H   H2        1.0  0.00261  0.61119  0.28641  1.0000
  H   H3        1.0  0.85539  0.56022  0.67533  1.0000
  H   H4        1.0  0.14461  0.43978  0.32467  1.0000
  H   H5        1.0  0.80117  0.47277  0.30706  1.0000
  H   H6        1.0  0.19883  0.52723  0.69295  1.0000
  H   H7        1.0  0.62211  0.45604  0.45040  1.0000
  H   H8        1.0  0.37789  0.54395  0.54961  1.0000
  H   H9        1.0  0.27284  0.49724  0.91924  1.0000
  H   H10       1.0  0.72715  0.50276  0.08076  1.0000
  H   H11       1.0  0.49624  0.50953  0.80841  1.0000
  H   H12       1.0  0.50376  0.49048  0.19158  1.0000
  H   H13       1.0  0.77857  0.23866  0.18399  1.0000
  H   H14       1.0  0.22143  0.76135  0.81600  1.0000
  H   H15       1.0  0.69869  0.15289  0.11924  1.0000
  H   H16       1.0  0.30130  0.84711  0.88076  1.0000
  H   H17       1.0  0.35526  0.93027  0.12700  1.0000
  H   H18       1.0  0.64474  0.06973  0.87300  1.0000
  H   H19       1.0  0.29404  0.11922  0.06990  1.0000
  H   H20       1.0  0.70597  0.88078  0.93010  1.0000
  H   H21       1.0  0.18957  0.79714  0.10121  1.0000
  H   H22       1.0  0.81043  0.20286  0.89879  1.0000
  H   H23       1.0  0.98317  0.85322  0.20410  1.0000
  H   H24       1.0  0.01683  0.14678  0.79590  1.0000
  H   H25       1.0  0.31002  0.16675  0.64532  1.0000
  H   H26       1.0  0.68998  0.83325  0.35468  1.0000
  H   H27       1.0  0.41977  0.24348  0.50886  1.0000
  H   H28       1.0  0.58023  0.75652  0.49114  1.0000
  C   C1        1.0  0.83771  0.43624  0.58433  1.0000
  C   C2        1.0  0.16229  0.56376  0.41568  1.0000
  C   C3        1.0  0.95202  0.48144  0.63405  1.0000
  C   C4        1.0  0.04798  0.51855  0.36596  1.0000
  C   C5        1.0  0.77074  0.41954  0.41171  1.0000
  C   C6        1.0  0.22926  0.58046  0.58830  1.0000
  C   C7        1.0  0.80557  0.25986  0.44378  1.0000
  C   C8        1.0  0.19444  0.74013  0.55622  1.0000
  C   C9        1.0  0.41700  0.50473  0.90644  1.0000
  C   C10       1.0  0.58299  0.49528  0.09356  1.0000
  C   C11       1.0  0.65557  0.23314  0.16318  1.0000
  C   C12       1.0  0.34442  0.76686  0.83682  1.0000
  C   C13       1.0  0.50128  0.36540  0.99468  1.0000
  C   C14       1.0  0.49871  0.63460  0.00532  1.0000
  C   C15       1.0  0.51005  0.17954  0.28646  1.0000
  C   C16       1.0  0.48995  0.82047  0.71353  1.0000
  C   C17       1.0  0.23701  0.02076  0.12390  1.0000
  C   C18       1.0  0.76299  0.97924  0.87609  1.0000
  C   C19       1.0  0.14163  0.01405  0.26047  1.0000
  C   C20       1.0  0.85837  0.98595  0.73952  1.0000
  C   C21       1.0  0.06238  0.87967  0.10305  1.0000
  C   C22       1.0  0.93763  0.12033  0.89695  1.0000
  C   C23       1.0  0.05476  0.13475  0.96601  1.0000
  C   C24       1.0  0.94524  0.86525  0.03399  1.0000
  N   N1        1.0  0.88602  0.45944  0.45815  1.0000
  N   N2        1.0  0.11398  0.54056  0.54186  1.0000
  N   N3        1.0  0.58436  0.36818  0.07528  1.0000
  N   N4        1.0  0.41563  0.63182  0.92471  1.0000
  N   N5        1.0  0.11660  0.01603  0.05812  1.0000
  N   N6        1.0  0.88340  0.98397  0.94188  1.0000
  O   O1        1.0  0.70013  0.38178  0.66000  1.0000
  O   O2        1.0  0.29989  0.61821  0.34001  1.0000
  O   O3        1.0  0.96416  0.18594  0.45797  1.0000
  O   O4        1.0  0.03585  0.81406  0.54203  1.0000
  O   O5        1.0  0.67502  0.20636  0.45084  1.0000
  O   O6        1.0  0.32498  0.79364  0.54916  1.0000
  O   O7        1.0  0.49723  0.25264  0.98872  1.0000
  O   O8        1.0  0.50275  0.74737  0.01128  1.0000
  O   O9        1.0  0.34674  0.24883  0.30787  1.0000
  O   O10       1.0  0.65325  0.75117  0.69212  1.0000
  O   O11       1.0  0.55685  0.05500  0.36885  1.0000
  O   O12       1.0  0.44315  0.94501  0.63115  1.0000
  O   O13       1.0  0.24659  0.01090  0.32153  1.0000
  O   O14       1.0  0.75342  0.98910  0.67846  1.0000
  O   O15       1.0  0.96685  0.01218  0.30475  1.0000
  O   O16       1.0  0.03316  0.98782  0.69525  1.0000
  O   O17       1.0  0.09185  0.25352  0.93311  1.0000
  O   O18       1.0  0.90816  0.74648  0.06689  1.0000
  O   O19       1.0  0.29361  0.22097  0.55901  1.0000
  O   O20       1.0  0.70639  0.77903  0.44099  1.0000
