data_image0
_chemical_formula_structural       Cd4H20C28I8N16
_chemical_formula_sum              "Cd4 H20 C28 I8 N16"
_cell_length_a       7.52185
_cell_length_b       10.2313
_cell_length_c       14.6622
_cell_angle_alpha    76.843
_cell_angle_beta     83.8598
_cell_angle_gamma    88.6277

_space_group_name_H-M_alt    "P 1"
_space_group_IT_number       1

loop_
  _space_group_symop_operation_xyz
  'x, y, z'

loop_
  _atom_site_type_symbol
  _atom_site_label
  _atom_site_symmetry_multiplicity
  _atom_site_fract_x
  _atom_site_fract_y
  _atom_site_fract_z
  _atom_site_occupancy
  Cd  Cd1       1.0  0.44359  0.75288  0.72318  1.0000
  Cd  Cd2       1.0  0.55641  0.24712  0.27682  1.0000
  Cd  Cd3       1.0  0.93777  0.91577  0.72997  1.0000
  Cd  Cd4       1.0  0.06222  0.08423  0.27003  1.0000
  H   H1        1.0  0.24240  0.40512  0.49229  1.0000
  H   H2        1.0  0.75760  0.59488  0.50771  1.0000
  H   H3        1.0  0.26559  0.87560  0.49231  1.0000
  H   H4        1.0  0.73442  0.12440  0.50769  1.0000
  H   H5        1.0  0.61979  0.58639  0.90412  1.0000
  H   H6        1.0  0.38021  0.41361  0.09588  1.0000
  H   H7        1.0  0.67617  0.34893  0.98931  1.0000
  H   H8        1.0  0.32383  0.65107  0.01069  1.0000
  H   H9        1.0  0.59844  0.16093  0.91564  1.0000
  H   H10       1.0  0.40156  0.83907  0.08436  1.0000
  H   H11       1.0  0.47219  0.21749  0.76051  1.0000
  H   H12       1.0  0.52781  0.78251  0.23949  1.0000
  H   H13       1.0  0.03010  0.56401  0.25172  1.0000
  H   H14       1.0  0.96990  0.43599  0.74828  1.0000
  H   H15       1.0  0.90098  0.60083  0.09732  1.0000
  H   H16       1.0  0.09902  0.39917  0.90269  1.0000
  H   H17       1.0  0.82718  0.83599  0.01441  1.0000
  H   H18       1.0  0.17282  0.16401  0.98559  1.0000
  H   H19       1.0  0.88863  0.02582  0.09015  1.0000
  H   H20       1.0  0.11136  0.97417  0.90985  1.0000
  C   C1        1.0  0.58712  0.50103  0.87579  1.0000
  C   C2        1.0  0.41288  0.49897  0.12421  1.0000
  C   C3        1.0  0.61851  0.36951  0.92236  1.0000
  C   C4        1.0  0.38149  0.63050  0.07764  1.0000
  C   C5        1.0  0.57678  0.26546  0.88109  1.0000
  C   C6        1.0  0.42322  0.73454  0.11891  1.0000
  C   C7        1.0  0.50618  0.29601  0.79495  1.0000
  C   C8        1.0  0.49382  0.70399  0.20505  1.0000
  C   C9        1.0  0.47590  0.43090  0.75309  1.0000
  C   C10       1.0  0.52410  0.56910  0.24691  1.0000
  C   C11       1.0  0.39677  0.46811  0.66388  1.0000
  C   C12       1.0  0.60323  0.53190  0.33612  1.0000
  C   C13       1.0  0.28696  0.58251  0.54261  1.0000
  C   C14       1.0  0.71305  0.41749  0.45739  1.0000
  C   C15       1.0  0.22249  0.67977  0.46520  1.0000
  C   C16       1.0  0.77751  0.32023  0.53480  1.0000
  C   C17       1.0  0.11044  0.76159  0.33794  1.0000
  C   C18       1.0  0.88956  0.23842  0.66206  1.0000
  C   C19       1.0  0.02973  0.77592  0.24964  1.0000
  C   C20       1.0  0.97027  0.22408  0.75036  1.0000
  C   C21       1.0  0.99695  0.66452  0.21348  1.0000
  C   C22       1.0  0.00305  0.33548  0.78652  1.0000
  C   C23       1.0  0.92510  0.68594  0.12766  1.0000
  C   C24       1.0  0.07490  0.31406  0.87234  1.0000
  C   C25       1.0  0.88537  0.81645  0.08123  1.0000
  C   C26       1.0  0.11463  0.18354  0.91877  1.0000
  C   C27       1.0  0.91962  0.92182  0.12250  1.0000
  C   C28       1.0  0.08038  0.07818  0.87750  1.0000
  I   I1        1.0  0.09758  0.69522  0.85661  1.0000
  I   I2        1.0  0.90241  0.30477  0.14339  1.0000
  I   I3        1.0  0.59275  0.89193  0.85534  1.0000
  I   I4        1.0  0.40725  0.10807  0.14466  1.0000
  I   I5        1.0  0.30650  0.99157  0.61611  1.0000
  I   I6        1.0  0.69350  0.00843  0.38389  1.0000
  I   I7        1.0  0.81285  0.75132  0.61357  1.0000
  I   I8        1.0  0.18715  0.24868  0.38643  1.0000
  N   N1        1.0  0.51528  0.53106  0.79349  1.0000
  N   N2        1.0  0.48473  0.46894  0.20651  1.0000
  N   N3        1.0  0.35654  0.59695  0.62018  1.0000
  N   N4        1.0  0.64346  0.40305  0.37982  1.0000
  N   N5        1.0  0.35571  0.37601  0.61748  1.0000
  N   N6        1.0  0.64429  0.62400  0.38252  1.0000
  N   N7        1.0  0.28682  0.45011  0.54189  1.0000
  N   N8        1.0  0.71318  0.54989  0.45811  1.0000
  N   N9        1.0  0.14998  0.64279  0.39534  1.0000
  N   N10       1.0  0.85002  0.35722  0.60466  1.0000
  N   N11       1.0  0.22724  0.81531  0.44941  1.0000
  N   N12       1.0  0.77277  0.18469  0.55059  1.0000
  N   N13       1.0  0.15539  0.86877  0.36917  1.0000
  N   N14       1.0  0.84461  0.13123  0.63083  1.0000
  N   N15       1.0  0.99186  0.90218  0.20432  1.0000
  N   N16       1.0  0.00814  0.09781  0.79568  1.0000
