data_image0
_chemical_formula_structural       Mg2H32C12O16
_chemical_formula_sum              "Mg2 H32 C12 O16"
_cell_length_a       4.70808
_cell_length_b       9.65889
_cell_length_c       11.7884
_cell_angle_alpha    90
_cell_angle_beta     99.0765
_cell_angle_gamma    90

_space_group_name_H-M_alt    "P 1"
_space_group_IT_number       1

loop_
  _space_group_symop_operation_xyz
  'x, y, z'

loop_
  _atom_site_type_symbol
  _atom_site_label
  _atom_site_symmetry_multiplicity
  _atom_site_fract_x
  _atom_site_fract_y
  _atom_site_fract_z
  _atom_site_occupancy
  Mg  Mg1       1.0  1.00000  1.00000  0.50000  1.0000
  Mg  Mg2       1.0  1.00000  0.50000  0.00000  1.0000
  H   H1        1.0  0.34920  0.03014  0.17824  1.0000
  H   H2        1.0  0.65080  0.53015  0.32176  1.0000
  H   H3        1.0  0.65080  0.96985  0.82176  1.0000
  H   H4        1.0  0.34920  0.46986  0.67824  1.0000
  H   H5        1.0  0.72363  0.88316  0.02336  1.0000
  H   H6        1.0  0.27637  0.38316  0.47664  1.0000
  H   H7        1.0  0.27637  0.11684  0.97664  1.0000
  H   H8        1.0  0.72363  0.61684  0.52336  1.0000
  H   H9        1.0  0.77828  0.05569  0.07004  1.0000
  H   H10       1.0  0.22172  0.55569  0.42996  1.0000
  H   H11       1.0  0.22172  0.94431  0.92996  1.0000
  H   H12       1.0  0.77828  0.44431  0.57004  1.0000
  H   H13       1.0  0.32834  0.85367  0.13807  1.0000
  H   H14       1.0  0.67166  0.35367  0.36193  1.0000
  H   H15       1.0  0.67166  0.14633  0.86193  1.0000
  H   H16       1.0  0.32834  0.64633  0.63807  1.0000
  H   H17       1.0  0.88436  0.19706  0.62474  1.0000
  H   H18       1.0  0.11564  0.69706  0.87526  1.0000
  H   H19       1.0  0.11563  0.80294  0.37526  1.0000
  H   H20       1.0  0.88437  0.30294  0.12474  1.0000
  H   H21       1.0  0.59181  0.17979  0.52920  1.0000
  H   H22       1.0  0.40819  0.67979  0.97080  1.0000
  H   H23       1.0  0.40819  0.82021  0.47080  1.0000
  H   H24       1.0  0.59182  0.32021  0.02920  1.0000
  H   H25       1.0  0.80673  0.80685  0.64598  1.0000
  H   H26       1.0  0.19327  0.30685  0.85402  1.0000
  H   H27       1.0  0.19327  0.19315  0.35402  1.0000
  H   H28       1.0  0.80673  0.69315  0.14598  1.0000
  H   H29       1.0  0.58463  0.93336  0.62411  1.0000
  H   H30       1.0  0.41537  0.43336  0.87589  1.0000
  H   H31       1.0  0.41537  0.06664  0.37589  1.0000
  H   H32       1.0  0.58463  0.56664  0.12411  1.0000
  C   C1        1.0  0.69928  0.90623  0.25926  1.0000
  C   C2        1.0  0.30072  0.40624  0.24074  1.0000
  C   C3        1.0  0.30072  0.09377  0.74074  1.0000
  C   C4        1.0  0.69928  0.59376  0.75926  1.0000
  C   C5        1.0  0.47698  0.94176  0.15630  1.0000
  C   C6        1.0  0.52301  0.44176  0.34370  1.0000
  C   C7        1.0  0.52301  0.05824  0.84370  1.0000
  C   C8        1.0  0.47698  0.55824  0.65630  1.0000
  C   C9        1.0  0.61258  0.97523  0.04954  1.0000
  C   C10       1.0  0.38742  0.47523  0.45046  1.0000
  C   C11       1.0  0.38742  0.02477  0.95046  1.0000
  C   C12       1.0  0.61258  0.52477  0.54954  1.0000
  O   O1        1.0  0.88069  0.81017  0.25162  1.0000
  O   O2        1.0  0.11931  0.31017  0.24838  1.0000
  O   O3        1.0  0.11931  0.18983  0.74838  1.0000
  O   O4        1.0  0.88069  0.68983  0.75162  1.0000
  O   O5        1.0  0.69894  0.97661  0.35168  1.0000
  O   O6        1.0  0.30106  0.47661  0.14832  1.0000
  O   O7        1.0  0.30106  0.02339  0.64832  1.0000
  O   O8        1.0  0.69894  0.52339  0.85168  1.0000
  O   O9        1.0  0.80292  0.18083  0.54178  1.0000
  O   O10       1.0  0.19708  0.68082  0.95822  1.0000
  O   O11       1.0  0.19708  0.81917  0.45822  1.0000
  O   O12       1.0  0.80292  0.31917  0.04178  1.0000
  O   O13       1.0  0.73487  0.88162  0.58950  1.0000
  O   O14       1.0  0.26512  0.38162  0.91050  1.0000
  O   O15       1.0  0.26512  0.11837  0.41050  1.0000
  O   O16       1.0  0.73488  0.61837  0.08950  1.0000
