data_image0
_chemical_formula_structural       Mn2H24C28N8O8
_chemical_formula_sum              "Mn2 H24 C28 N8 O8"
_cell_length_a       7.84999
_cell_length_b       9.38455
_cell_length_c       10.2524
_cell_angle_alpha    75.8876
_cell_angle_beta     78.1761
_cell_angle_gamma    78.4387

_space_group_name_H-M_alt    "P 1"
_space_group_IT_number       1

loop_
  _space_group_symop_operation_xyz
  'x, y, z'

loop_
  _atom_site_type_symbol
  _atom_site_label
  _atom_site_symmetry_multiplicity
  _atom_site_fract_x
  _atom_site_fract_y
  _atom_site_fract_z
  _atom_site_occupancy
  Mn  Mn1       1.0  0.45134  0.13533  0.65299  1.0000
  Mn  Mn2       1.0  0.54865  0.86468  0.34700  1.0000
  H   H1        1.0  0.93591  0.82390  0.73966  1.0000
  H   H2        1.0  0.06410  0.17609  0.26033  1.0000
  H   H3        1.0  0.85302  0.50571  0.33391  1.0000
  H   H4        1.0  0.14697  0.49428  0.66610  1.0000
  H   H5        1.0  0.25495  0.55885  0.88782  1.0000
  H   H6        1.0  0.74508  0.44118  0.11218  1.0000
  H   H7        1.0  0.22555  0.66077  0.09579  1.0000
  H   H8        1.0  0.77446  0.33922  0.90423  1.0000
  H   H9        1.0  0.27093  0.49018  0.31654  1.0000
  H   H10       1.0  0.72908  0.50979  0.68347  1.0000
  H   H11       1.0  0.39867  0.11683  0.11912  1.0000
  H   H12       1.0  0.60131  0.88317  0.88087  1.0000
  H   H13       1.0  0.16195  0.96532  0.56340  1.0000
  H   H14       1.0  0.83806  0.03467  0.43659  1.0000
  H   H15       1.0  0.98201  0.80030  0.98268  1.0000
  H   H16       1.0  0.01801  0.19972  0.01731  1.0000
  H   H17       1.0  0.26470  0.95122  0.95465  1.0000
  H   H18       1.0  0.73531  0.04880  0.04533  1.0000
  H   H19       1.0  0.55981  0.42352  0.39563  1.0000
  H   H20       1.0  0.44017  0.57648  0.60438  1.0000
  H   H21       1.0  0.06983  0.34702  0.50094  1.0000
  H   H22       1.0  0.93015  0.65296  0.49908  1.0000
  H   H23       1.0  0.85964  0.16189  0.69122  1.0000
  H   H24       1.0  0.14033  0.83811  0.30880  1.0000
  C   C1        1.0  0.33076  0.33153  0.99059  1.0000
  C   C2        1.0  0.66923  0.66849  0.00940  1.0000
  C   C3        1.0  0.27764  0.48450  0.98458  1.0000
  C   C4        1.0  0.72238  0.51551  0.01541  1.0000
  C   C5        1.0  0.25948  0.54138  0.10131  1.0000
  C   C6        1.0  0.74052  0.45862  0.89870  1.0000
  C   C7        1.0  0.28659  0.44594  0.22519  1.0000
  C   C8        1.0  0.71341  0.55405  0.77481  1.0000
  C   C9        1.0  0.33198  0.29180  0.23366  1.0000
  C   C10       1.0  0.66801  0.70819  0.76634  1.0000
  C   C11       1.0  0.35817  0.23574  0.11502  1.0000
  C   C12       1.0  0.64183  0.76427  0.88497  1.0000
  C   C13       1.0  0.36127  0.26747  0.86591  1.0000
  C   C14       1.0  0.63874  0.73255  0.13409  1.0000
  C   C15       1.0  0.34827  0.18736  0.36821  1.0000
  C   C16       1.0  0.65174  0.81263  0.63178  1.0000
  C   C17       1.0  0.15152  0.94322  0.67338  1.0000
  C   C18       1.0  0.84848  0.05678  0.32661  1.0000
  C   C19       1.0  0.06135  0.85743  0.89348  1.0000
  C   C20       1.0  0.93866  0.14257  0.10651  1.0000
  C   C21       1.0  0.19964  0.93299  0.87783  1.0000
  C   C22       1.0  0.80038  0.06702  0.12216  1.0000
  C   C23       1.0  0.66758  0.37648  0.45193  1.0000
  C   C24       1.0  0.33240  0.62352  0.54808  1.0000
  C   C25       1.0  0.93332  0.33582  0.50815  1.0000
  C   C26       1.0  0.06666  0.66417  0.49187  1.0000
  C   C27       1.0  0.82821  0.24399  0.60140  1.0000
  C   C28       1.0  0.17177  0.75600  0.39861  1.0000
  N   N1        1.0  0.25418  0.98657  0.74017  1.0000
  N   N2        1.0  0.74582  0.01343  0.25982  1.0000
  N   N3        1.0  0.03368  0.86500  0.76315  1.0000
  N   N4        1.0  0.96634  0.13501  0.23684  1.0000
  N   N5        1.0  0.66268  0.27026  0.56524  1.0000
  N   N6        1.0  0.33730  0.72973  0.43477  1.0000
  N   N7        1.0  0.82841  0.41869  0.41466  1.0000
  N   N8        1.0  0.17159  0.58130  0.58535  1.0000
  O   O1        1.0  0.27062  0.32665  0.77068  1.0000
  O   O2        1.0  0.72937  0.67336  0.22932  1.0000
  O   O3        1.0  0.47869  0.15218  0.85937  1.0000
  O   O4        1.0  0.52131  0.84783  0.14062  1.0000
  O   O5        1.0  0.35121  0.24309  0.46925  1.0000
  O   O6        1.0  0.64878  0.75690  0.53075  1.0000
  O   O7        1.0  0.35068  0.04904  0.37608  1.0000
  O   O8        1.0  0.64932  0.95095  0.62392  1.0000
