data_image0
_chemical_formula_structural       U2H32C32N4O20
_chemical_formula_sum              "U2 H32 C32 N4 O20"
_cell_length_a       9.45439
_cell_length_b       9.45434
_cell_length_c       12.7941
_cell_angle_alpha    96.4989
_cell_angle_beta     96.4997
_cell_angle_gamma    113.358

_space_group_name_H-M_alt    "P 1"
_space_group_IT_number       1

loop_
  _space_group_symop_operation_xyz
  'x, y, z'

loop_
  _atom_site_type_symbol
  _atom_site_label
  _atom_site_symmetry_multiplicity
  _atom_site_fract_x
  _atom_site_fract_y
  _atom_site_fract_z
  _atom_site_occupancy
  U   U1        1.0  0.52656  0.47116  0.74997  1.0000
  U   U2        1.0  0.47118  0.52655  0.24997  1.0000
  H   H1        1.0  0.10293  0.67676  0.13781  1.0000
  H   H2        1.0  0.32344  0.89743  0.36238  1.0000
  H   H3        1.0  0.89743  0.32344  0.86237  1.0000
  H   H4        1.0  0.67676  0.10292  0.63782  1.0000
  H   H5        1.0  0.08506  0.85810  0.15203  1.0000
  H   H6        1.0  0.14292  0.91699  0.34727  1.0000
  H   H7        1.0  0.91701  0.14293  0.84727  1.0000
  H   H8        1.0  0.85809  0.08505  0.65204  1.0000
  H   H9        1.0  0.91970  0.68265  0.15866  1.0000
  H   H10       1.0  0.31970  0.08167  0.34196  1.0000
  H   H11       1.0  0.08167  0.31971  0.84196  1.0000
  H   H12       1.0  0.68264  0.91969  0.65867  1.0000
  H   H13       1.0  0.15534  0.67664  0.93928  1.0000
  H   H14       1.0  0.32049  0.84326  0.55990  1.0000
  H   H15       1.0  0.84326  0.32050  0.05989  1.0000
  H   H16       1.0  0.67664  0.15534  0.43928  1.0000
  H   H17       1.0  0.04280  0.75205  0.85828  1.0000
  H   H18       1.0  0.24551  0.95591  0.64120  1.0000
  H   H19       1.0  0.95590  0.24553  0.14120  1.0000
  H   H20       1.0  0.75205  0.04280  0.35828  1.0000
  H   H21       1.0  0.18264  0.87475  0.97353  1.0000
  H   H22       1.0  0.12290  0.81752  0.52527  1.0000
  H   H23       1.0  0.81752  0.12291  0.02526  1.0000
  H   H24       1.0  0.87475  0.18263  0.47354  1.0000
  H   H25       1.0  0.73994  0.62259  0.01787  1.0000
  H   H26       1.0  0.38001  0.26057  0.48354  1.0000
  H   H27       1.0  0.26058  0.38001  0.98355  1.0000
  H   H28       1.0  0.62258  0.73994  0.51788  1.0000
  H   H29       1.0  0.50987  0.98575  0.80660  1.0000
  H   H30       1.0  0.01415  0.49316  0.69389  1.0000
  H   H31       1.0  0.49316  0.01415  0.19389  1.0000
  H   H32       1.0  0.98575  0.50986  0.30659  1.0000
  C   C1        1.0  0.51292  0.73196  0.87454  1.0000
  C   C2        1.0  0.26760  0.48891  0.62559  1.0000
  C   C3        1.0  0.48892  0.26763  0.12560  1.0000
  C   C4        1.0  0.73194  0.51291  0.37453  1.0000
  C   C5        1.0  0.49669  0.12240  0.94919  1.0000
  C   C6        1.0  0.87743  0.50615  0.55125  1.0000
  C   C7        1.0  0.50615  0.87743  0.05125  1.0000
  C   C8        1.0  0.12240  0.49668  0.44919  1.0000
  C   C9        1.0  0.50987  0.86973  0.94124  1.0000
  C   C10       1.0  0.13026  0.49331  0.55925  1.0000
  C   C11       1.0  0.49332  0.13027  0.05926  1.0000
  C   C12       1.0  0.86972  0.50986  0.44123  1.0000
  C   C13       1.0  0.50604  0.99298  0.89175  1.0000
  C   C14       1.0  0.00702  0.49716  0.60876  1.0000
  C   C15       1.0  0.49716  0.00702  0.10876  1.0000
  C   C16       1.0  0.99298  0.50604  0.39174  1.0000
  C   C17       1.0  0.49592  0.24748  0.88750  1.0000
  C   C18       1.0  0.75091  0.50460  0.61219  1.0000
  C   C19       1.0  0.50461  0.75090  0.11220  1.0000
  C   C20       1.0  0.24748  0.49589  0.38749  1.0000
  C   C21       1.0  0.82273  0.65213  0.96140  1.0000
  C   C22       1.0  0.34813  0.17689  0.53927  1.0000
  C   C23       1.0  0.17690  0.34814  0.03927  1.0000
  C   C24       1.0  0.65212  0.82272  0.46141  1.0000
  C   C25       1.0  0.02237  0.73210  0.12022  1.0000
  C   C26       1.0  0.26876  0.97862  0.37979  1.0000
  C   C27       1.0  0.97863  0.26876  0.87979  1.0000
  C   C28       1.0  0.73209  0.02236  0.62022  1.0000
  C   C29       1.0  0.09570  0.75560  0.93973  1.0000
  C   C30       1.0  0.24216  0.90359  0.55964  1.0000
  C   C31       1.0  0.90359  0.24217  0.05963  1.0000
  C   C32       1.0  0.75561  0.09570  0.43973  1.0000
  N   N1        1.0  0.97351  0.70891  0.00496  1.0000
  N   N2        1.0  0.29059  0.02652  0.49508  1.0000
  N   N3        1.0  0.02652  0.29059  0.99508  1.0000
  N   N4        1.0  0.70890  0.97351  0.50496  1.0000
  O   O1        1.0  0.54923  0.74291  0.78152  1.0000
  O   O2        1.0  0.25718  0.45454  0.71923  1.0000
  O   O3        1.0  0.45453  0.25719  0.21924  1.0000
  O   O4        1.0  0.74291  0.54926  0.28151  1.0000
  O   O5        1.0  0.62446  0.32314  0.85442  1.0000
  O   O6        1.0  0.67477  0.37488  0.64352  1.0000
  O   O7        1.0  0.37489  0.67478  0.14353  1.0000
  O   O8        1.0  0.32315  0.62445  0.35444  1.0000
  O   O9        1.0  0.47850  0.60346  0.91039  1.0000
  O   O10       1.0  0.39488  0.51946  0.58879  1.0000
  O   O11       1.0  0.51948  0.39491  0.08879  1.0000
  O   O12       1.0  0.60344  0.47848  0.41039  1.0000
  O   O13       1.0  0.77649  0.63522  0.86226  1.0000
  O   O14       1.0  0.36336  0.22198  0.63851  1.0000
  O   O15       1.0  0.22198  0.36337  0.13852  1.0000
  O   O16       1.0  0.63523  0.77649  0.36227  1.0000
  O   O17       1.0  0.37477  0.27016  0.86095  1.0000
  O   O18       1.0  0.72714  0.62490  0.63959  1.0000
  O   O19       1.0  0.62493  0.72714  0.13959  1.0000
  O   O20       1.0  0.27013  0.37473  0.36094  1.0000
