data_image0
_chemical_formula_structural       Zn2H28C28O16
_chemical_formula_sum              "Zn2 H28 C28 O16"
_cell_length_a       7.2237
_cell_length_b       7.51817
_cell_length_c       12.7433
_cell_angle_alpha    88.7488
_cell_angle_beta     95.2951
_cell_angle_gamma    99.3203

_space_group_name_H-M_alt    "P 1"
_space_group_IT_number       1

loop_
  _space_group_symop_operation_xyz
  'x, y, z'

loop_
  _atom_site_type_symbol
  _atom_site_label
  _atom_site_symmetry_multiplicity
  _atom_site_fract_x
  _atom_site_fract_y
  _atom_site_fract_z
  _atom_site_occupancy
  Zn  Zn1       1.0  0.33866  0.64832  0.04065  1.0000
  Zn  Zn2       1.0  0.66134  0.35169  0.95935  1.0000
  H   H1        1.0  0.76323  0.71421  0.28856  1.0000
  H   H2        1.0  0.23678  0.28580  0.71144  1.0000
  H   H3        1.0  0.71777  0.48788  0.33739  1.0000
  H   H4        1.0  0.28223  0.51213  0.66260  1.0000
  H   H5        1.0  0.87269  0.70965  0.45297  1.0000
  H   H6        1.0  0.12731  0.29034  0.54703  1.0000
  H   H7        1.0  0.92659  0.84180  0.62603  1.0000
  H   H8        1.0  0.07341  0.15820  0.37397  1.0000
  H   H9        1.0  0.49292  0.98451  0.77335  1.0000
  H   H10       1.0  0.50708  0.01550  0.22665  1.0000
  H   H11       1.0  0.61786  0.85377  0.62243  1.0000
  H   H12       1.0  0.38215  0.14624  0.37756  1.0000
  H   H13       1.0  0.55855  0.69327  0.44891  1.0000
  H   H14       1.0  0.44145  0.30673  0.55109  1.0000
  H   H15       1.0  0.33565  0.56798  0.29805  1.0000
  H   H16       1.0  0.66435  0.43201  0.70196  1.0000
  H   H17       1.0  0.87096  0.86128  0.81399  1.0000
  H   H18       1.0  0.12904  0.13871  0.18602  1.0000
  H   H19       1.0  0.89374  0.05158  0.72628  1.0000
  H   H20       1.0  0.10625  0.94841  0.27372  1.0000
  H   H21       1.0  0.09647  0.35056  0.04008  1.0000
  H   H22       1.0  0.90354  0.64944  0.95992  1.0000
  H   H23       1.0  0.03223  0.46449  0.12849  1.0000
  H   H24       1.0  0.96776  0.53551  0.87151  1.0000
  H   H25       1.0  0.58393  0.92894  0.94691  1.0000
  H   H26       1.0  0.41607  0.07105  0.05309  1.0000
  H   H27       1.0  0.70283  0.82881  0.03200  1.0000
  H   H28       1.0  0.29717  0.17118  0.96800  1.0000
  C   C1        1.0  0.68206  0.51676  0.16976  1.0000
  C   C2        1.0  0.31794  0.48323  0.83024  1.0000
  C   C3        1.0  0.78410  0.57498  0.27592  1.0000
  C   C4        1.0  0.21590  0.42503  0.72409  1.0000
  C   C5        1.0  0.09071  0.63299  0.36630  1.0000
  C   C6        1.0  0.90929  0.36699  0.63370  1.0000
  C   C7        1.0  0.02223  0.70672  0.45038  1.0000
  C   C8        1.0  0.97777  0.29328  0.54962  1.0000
  C   C9        1.0  0.14674  0.77761  0.53742  1.0000
  C   C10       1.0  0.85326  0.22239  0.46258  1.0000
  C   C11       1.0  0.07800  0.84778  0.62582  1.0000
  C   C12       1.0  0.92200  0.15222  0.37418  1.0000
  C   C13       1.0  0.20120  0.91756  0.70989  1.0000
  C   C14       1.0  0.79880  0.08245  0.29011  1.0000
  C   C15       1.0  0.39828  0.92192  0.70815  1.0000
  C   C16       1.0  0.60172  0.07809  0.29184  1.0000
  C   C17       1.0  0.46662  0.85115  0.62365  1.0000
  C   C18       1.0  0.53338  0.14886  0.37635  1.0000
  C   C19       1.0  0.34447  0.77516  0.53668  1.0000
  C   C20       1.0  0.65552  0.22484  0.46332  1.0000
  C   C21       1.0  0.40826  0.69660  0.44919  1.0000
  C   C22       1.0  0.59174  0.30339  0.55081  1.0000
  C   C23       1.0  0.28583  0.62602  0.36570  1.0000
  C   C24       1.0  0.71417  0.37397  0.63430  1.0000
  C   C25       1.0  0.95172  0.99646  0.80088  1.0000
  C   C26       1.0  0.04827  0.00355  0.19912  1.0000
  C   C27       1.0  0.92484  0.12224  0.88783  1.0000
  C   C28       1.0  0.07515  0.87776  0.11216  1.0000
  O   O1        1.0  0.52332  0.56610  0.15284  1.0000
  O   O2        1.0  0.47667  0.43391  0.84716  1.0000
  O   O3        1.0  0.76011  0.42523  0.10890  1.0000
  O   O4        1.0  0.23988  0.57479  0.89110  1.0000
  O   O5        1.0  0.97973  0.56417  0.27846  1.0000
  O   O6        1.0  0.02027  0.43582  0.72154  1.0000
  O   O7        1.0  0.14736  0.98869  0.79831  1.0000
  O   O8        1.0  0.85264  0.01131  0.20169  1.0000
  O   O9        1.0  0.75292  0.14278  0.89352  1.0000
  O   O10       1.0  0.24708  0.85722  0.10648  1.0000
  O   O11       1.0  0.06420  0.19807  0.94566  1.0000
  O   O12       1.0  0.93580  0.80193  0.05434  1.0000
  O   O13       1.0  0.14511  0.43863  0.09766  1.0000
  O   O14       1.0  0.85489  0.56136  0.90234  1.0000
  O   O15       1.0  0.57475  0.82529  0.99508  1.0000
  O   O16       1.0  0.42525  0.17472  0.00492  1.0000
