data_image0
_chemical_formula_structural       Cd2H28C28O16
_chemical_formula_sum              "Cd2 H28 C28 O16"
_cell_length_a       6.87678
_cell_length_b       8.26562
_cell_length_c       13.2387
_cell_angle_alpha    89.677
_cell_angle_beta     82.7009
_cell_angle_gamma    68.7793

_space_group_name_H-M_alt    "P 1"
_space_group_IT_number       1

loop_
  _space_group_symop_operation_xyz
  'x, y, z'

loop_
  _atom_site_type_symbol
  _atom_site_label
  _atom_site_symmetry_multiplicity
  _atom_site_fract_x
  _atom_site_fract_y
  _atom_site_fract_z
  _atom_site_occupancy
  Cd  Cd1       1.0  0.12149  0.76389  0.01462  1.0000
  Cd  Cd2       1.0  0.87852  0.23611  0.98538  1.0000
  H   H1        1.0  0.20323  0.50491  0.34724  1.0000
  H   H2        1.0  0.79676  0.49510  0.65276  1.0000
  H   H3        1.0  0.30883  0.31637  0.26237  1.0000
  H   H4        1.0  0.69117  0.68363  0.73763  1.0000
  H   H5        1.0  0.86341  0.46175  0.31520  1.0000
  H   H6        1.0  0.13658  0.53825  0.68480  1.0000
  H   H7        1.0  0.06217  0.33259  0.45877  1.0000
  H   H8        1.0  0.93783  0.66741  0.54123  1.0000
  H   H9        1.0  0.09284  0.16551  0.61606  1.0000
  H   H10       1.0  0.90717  0.83449  0.38393  1.0000
  H   H11       1.0  0.93594  0.02207  0.75200  1.0000
  H   H12       1.0  0.06407  0.97793  0.24799  1.0000
  H   H13       1.0  0.39625  0.12196  0.59359  1.0000
  H   H14       1.0  0.60375  0.87804  0.40641  1.0000
  H   H15       1.0  0.37749  0.26817  0.43212  1.0000
  H   H16       1.0  0.62251  0.73183  0.56788  1.0000
  H   H17       1.0  0.32414  0.95885  0.70890  1.0000
  H   H18       1.0  0.67586  0.04115  0.29109  1.0000
  H   H19       1.0  0.26426  0.16000  0.77781  1.0000
  H   H20       1.0  0.73574  0.84000  0.22219  1.0000
  H   H21       1.0  0.77152  0.66155  0.01665  1.0000
  H   H22       1.0  0.22848  0.33845  0.98335  1.0000
  H   H23       1.0  0.69181  0.81496  0.94221  1.0000
  H   H24       1.0  0.30819  0.18503  0.05779  1.0000
  H   H25       1.0  0.16203  0.49672  0.86383  1.0000
  H   H26       1.0  0.83797  0.50328  0.13617  1.0000
  H   H27       1.0  0.40340  0.46424  0.88263  1.0000
  H   H28       1.0  0.59660  0.53576  0.11737  1.0000
  C   C1        1.0  0.21664  0.55863  0.18963  1.0000
  C   C2        1.0  0.78336  0.44137  0.81037  1.0000
  C   C3        1.0  0.30793  0.44821  0.27618  1.0000
  C   C4        1.0  0.69206  0.55179  0.72382  1.0000
  C   C5        1.0  0.60906  0.37115  0.36506  1.0000
  C   C6        1.0  0.39094  0.62885  0.63494  1.0000
  C   C7        1.0  0.80404  0.38979  0.37256  1.0000
  C   C8        1.0  0.19595  0.61021  0.62744  1.0000
  C   C9        1.0  0.91269  0.31828  0.45211  1.0000
  C   C10       1.0  0.08731  0.68171  0.54790  1.0000
  C   C11       1.0  0.83358  0.22778  0.52791  1.0000
  C   C12       1.0  0.16642  0.77222  0.47209  1.0000
  C   C13       1.0  0.94117  0.15432  0.61127  1.0000
  C   C14       1.0  0.05883  0.84568  0.38873  1.0000
  C   C15       1.0  0.85611  0.07507  0.68658  1.0000
  C   C16       1.0  0.14389  0.92493  0.31342  1.0000
  C   C17       1.0  0.65525  0.06694  0.68163  1.0000
  C   C18       1.0  0.34475  0.93306  0.31837  1.0000
  C   C19       1.0  0.54829  0.13090  0.59956  1.0000
  C   C20       1.0  0.45171  0.86910  0.40044  1.0000
  C   C21       1.0  0.63490  0.21268  0.52117  1.0000
  C   C22       1.0  0.36510  0.78732  0.47883  1.0000
  C   C23       1.0  0.52663  0.28332  0.43732  1.0000
  C   C24       1.0  0.47337  0.71668  0.56268  1.0000
  C   C25       1.0  0.36130  0.02045  0.77402  1.0000
  C   C26       1.0  0.63871  0.97955  0.22598  1.0000
  C   C27       1.0  0.29764  0.93723  0.86793  1.0000
  C   C28       1.0  0.70236  0.06277  0.13207  1.0000
  O   O1        1.0  0.02674  0.58853  0.18044  1.0000
  O   O2        1.0  0.97326  0.41147  0.81956  1.0000
  O   O3        1.0  0.33428  0.61800  0.12942  1.0000
  O   O4        1.0  0.66571  0.38200  0.87058  1.0000
  O   O5        1.0  0.51439  0.44592  0.28263  1.0000
  O   O6        1.0  0.48561  0.55408  0.71737  1.0000
  O   O7        1.0  0.58012  0.99291  0.76354  1.0000
  O   O8        1.0  0.41988  0.00709  0.23646  1.0000
  O   O9        1.0  0.42920  0.83366  0.91789  1.0000
  O   O10       1.0  0.57079  0.16634  0.08211  1.0000
  O   O11       1.0  0.09727  0.97108  0.88959  1.0000
  O   O12       1.0  0.90274  0.02892  0.11041  1.0000
  O   O13       1.0  0.80730  0.75675  0.98234  1.0000
  O   O14       1.0  0.19269  0.24325  0.01766  1.0000
  O   O15       1.0  0.25221  0.50334  0.91473  1.0000
  O   O16       1.0  0.74779  0.49666  0.08528  1.0000
