data_image0
_chemical_formula_structural       NiH20C16O10
_chemical_formula_sum              "Ni1 H20 C16 O10"
_cell_length_a       4.89934
_cell_length_b       5.57842
_cell_length_c       15.1291
_cell_angle_alpha    87.5473
_cell_angle_beta     83.8637
_cell_angle_gamma    84.9222

_space_group_name_H-M_alt    "P 1"
_space_group_IT_number       1

loop_
  _space_group_symop_operation_xyz
  'x, y, z'

loop_
  _atom_site_type_symbol
  _atom_site_label
  _atom_site_symmetry_multiplicity
  _atom_site_fract_x
  _atom_site_fract_y
  _atom_site_fract_z
  _atom_site_occupancy
  Ni  Ni1       1.0  0.99999  0.00001  0.00000  1.0000
  H   H1        1.0  0.33460  0.45099  0.23245  1.0000
  H   H2        1.0  0.66541  0.54901  0.76755  1.0000
  H   H3        1.0  0.07877  0.30087  0.30284  1.0000
  H   H4        1.0  0.92122  0.69912  0.69717  1.0000
  H   H5        1.0  0.42611  0.41132  0.37775  1.0000
  H   H6        1.0  0.57390  0.58869  0.62225  1.0000
  H   H7        1.0  0.71278  0.36403  0.49919  1.0000
  H   H8        1.0  0.28724  0.63595  0.50081  1.0000
  H   H9        1.0  0.06092  0.67558  0.40171  1.0000
  H   H10       1.0  0.93909  0.32441  0.59829  1.0000
  H   H11       1.0  0.77033  0.72310  0.27957  1.0000
  H   H12       1.0  0.22967  0.27689  0.72043  1.0000
  H   H13       1.0  0.75456  0.69079  0.12039  1.0000
  H   H14       1.0  0.24544  0.30921  0.87962  1.0000
  H   H15       1.0  0.53959  0.92598  0.12635  1.0000
  H   H16       1.0  0.46042  0.07403  0.87365  1.0000
  H   H17       1.0  0.74360  0.35942  0.05596  1.0000
  H   H18       1.0  0.25639  0.64058  0.94405  1.0000
  H   H19       1.0  0.57656  0.27195  0.97546  1.0000
  H   H20       1.0  0.42343  0.72807  0.02454  1.0000
  C   C1        1.0  0.06593  0.26079  0.16313  1.0000
  C   C2        1.0  0.93404  0.73923  0.83688  1.0000
  C   C3        1.0  0.22601  0.28516  0.24268  1.0000
  C   C4        1.0  0.77398  0.71485  0.75732  1.0000
  C   C5        1.0  0.57449  0.06856  0.32063  1.0000
  C   C6        1.0  0.42553  0.93145  0.67936  1.0000
  C   C7        1.0  0.56282  0.24806  0.38297  1.0000
  C   C8        1.0  0.43719  0.75193  0.61703  1.0000
  C   C9        1.0  0.72974  0.21962  0.45231  1.0000
  C   C10       1.0  0.27025  0.78036  0.54769  1.0000
  C   C11       1.0  0.91318  0.01462  0.46269  1.0000
  C   C12       1.0  0.08682  0.98536  0.53730  1.0000
  C   C13       1.0  0.92187  0.83825  0.39817  1.0000
  C   C14       1.0  0.07815  0.16174  0.60183  1.0000
  C   C15       1.0  0.75738  0.86273  0.32855  1.0000
  C   C16       1.0  0.24263  0.13726  0.67144  1.0000
  O   O1        1.0  0.16108  0.09921  0.10851  1.0000
  O   O2        1.0  0.83892  0.90081  0.89149  1.0000
  O   O3        1.0  0.85129  0.40302  0.15817  1.0000
  O   O4        1.0  0.14871  0.59699  0.84184  1.0000
  O   O5        1.0  0.41842  0.07923  0.25051  1.0000
  O   O6        1.0  0.58158  0.92077  0.74949  1.0000
  O   O7        1.0  0.66479  0.82367  0.08535  1.0000
  O   O8        1.0  0.33520  0.17634  0.91465  1.0000
  O   O9        1.0  0.75951  0.30651  0.99325  1.0000
  O   O10       1.0  0.24048  0.69350  0.00676  1.0000
