data_image0
_chemical_formula_structural       CoH20C16O10
_chemical_formula_sum              "Co1 H20 C16 O10"
_cell_length_a       4.79504
_cell_length_b       5.59832
_cell_length_c       15.4489
_cell_angle_alpha    87.8211
_cell_angle_beta     83.0879
_cell_angle_gamma    84.281

_space_group_name_H-M_alt    "P 1"
_space_group_IT_number       1

loop_
  _space_group_symop_operation_xyz
  'x, y, z'

loop_
  _atom_site_type_symbol
  _atom_site_label
  _atom_site_symmetry_multiplicity
  _atom_site_fract_x
  _atom_site_fract_y
  _atom_site_fract_z
  _atom_site_occupancy
  Co  Co1       1.0  0.00001  0.49999  1.00000  1.0000
  H   H1        1.0  0.07471  0.80506  0.30154  1.0000
  H   H2        1.0  0.92529  0.19495  0.69846  1.0000
  H   H3        1.0  0.34613  0.94989  0.23530  1.0000
  H   H4        1.0  0.65386  0.05012  0.76469  1.0000
  H   H5        1.0  0.42585  0.91398  0.37742  1.0000
  H   H6        1.0  0.57415  0.08602  0.62258  1.0000
  H   H7        1.0  0.70984  0.86668  0.49760  1.0000
  H   H8        1.0  0.29015  0.13332  0.50240  1.0000
  H   H9        1.0  0.06529  0.17148  0.40495  1.0000
  H   H10       1.0  0.93470  0.82852  0.59505  1.0000
  H   H11       1.0  0.77733  0.21931  0.28390  1.0000
  H   H12       1.0  0.22264  0.78071  0.71611  1.0000
  H   H13       1.0  0.47700  0.56605  0.88670  1.0000
  H   H14       1.0  0.52302  0.43394  0.11330  1.0000
  H   H15       1.0  0.23943  0.79193  0.87810  1.0000
  H   H16       1.0  0.76059  0.20804  0.12190  1.0000
  H   H17       1.0  0.74891  0.86883  0.06128  1.0000
  H   H18       1.0  0.25110  0.13116  0.93872  1.0000
  H   H19       1.0  0.55140  0.79061  0.98894  1.0000
  H   H20       1.0  0.44862  0.20937  0.01106  1.0000
  C   C1        1.0  0.08205  0.76474  0.16400  1.0000
  C   C2        1.0  0.91796  0.23527  0.83600  1.0000
  C   C3        1.0  0.23327  0.78640  0.24388  1.0000
  C   C4        1.0  0.76672  0.21361  0.75612  1.0000
  C   C5        1.0  0.57841  0.56804  0.32262  1.0000
  C   C6        1.0  0.42158  0.43197  0.67737  1.0000
  C   C7        1.0  0.56367  0.74940  0.38328  1.0000
  C   C8        1.0  0.43633  0.25061  0.61672  1.0000
  C   C9        1.0  0.72877  0.72105  0.45193  1.0000
  C   C10       1.0  0.27120  0.27896  0.54807  1.0000
  C   C11       1.0  0.91374  0.51432  0.46319  1.0000
  C   C12       1.0  0.08626  0.48569  0.53682  1.0000
  C   C13       1.0  0.92526  0.33581  0.40048  1.0000
  C   C14       1.0  0.07473  0.66420  0.59952  1.0000
  C   C15       1.0  0.76234  0.36011  0.33167  1.0000
  C   C16       1.0  0.23764  0.63989  0.66834  1.0000
  O   O1        1.0  0.31687  0.66763  0.91821  1.0000
  O   O2        1.0  0.68314  0.33236  0.08179  1.0000
  O   O3        1.0  0.74508  0.81418  0.00031  1.0000
  O   O4        1.0  0.25495  0.18580  0.99969  1.0000
  O   O5        1.0  0.18301  0.60297  0.10995  1.0000
  O   O6        1.0  0.81700  0.39703  0.89005  1.0000
  O   O7        1.0  0.86517  0.91071  0.15737  1.0000
  O   O8        1.0  0.13483  0.08929  0.84262  1.0000
  O   O9        1.0  0.42581  0.57836  0.25310  1.0000
  O   O10       1.0  0.57419  0.42164  0.74690  1.0000
