data_image0
_chemical_formula_structural       Cd2H28C32O14
_chemical_formula_sum              "Cd2 H28 C32 O14"
_cell_length_a       5.97156
_cell_length_b       7.91923
_cell_length_c       15.2891
_cell_angle_alpha    81.2352
_cell_angle_beta     90.7359
_cell_angle_gamma    86.8711

_space_group_name_H-M_alt    "P 1"
_space_group_IT_number       1

loop_
  _space_group_symop_operation_xyz
  'x, y, z'

loop_
  _atom_site_type_symbol
  _atom_site_label
  _atom_site_symmetry_multiplicity
  _atom_site_fract_x
  _atom_site_fract_y
  _atom_site_fract_z
  _atom_site_occupancy
  Cd  Cd1       1.0  0.22997  0.06663  0.05074  1.0000
  Cd  Cd2       1.0  0.77001  0.93338  0.94925  1.0000
  H   H1        1.0  0.99443  0.42667  0.14720  1.0000
  H   H2        1.0  0.00561  0.57333  0.85282  1.0000
  H   H3        1.0  0.13633  0.50114  0.23603  1.0000
  H   H4        1.0  0.86370  0.49889  0.76399  1.0000
  H   H5        1.0  0.45214  0.74812  0.24884  1.0000
  H   H6        1.0  0.54787  0.25188  0.75116  1.0000
  H   H7        1.0  0.28337  0.69503  0.39509  1.0000
  H   H8        1.0  0.71662  0.30496  0.60491  1.0000
  H   H9        1.0  0.84759  0.34632  0.48832  1.0000
  H   H10       1.0  0.15239  0.65366  0.51168  1.0000
  H   H11       1.0  0.00696  0.39196  0.34359  1.0000
  H   H12       1.0  0.99304  0.60803  0.65641  1.0000
  H   H13       1.0  0.69600  0.13372  0.26134  1.0000
  H   H14       1.0  0.30400  0.86628  0.73865  1.0000
  H   H15       1.0  0.56716  0.31693  0.19259  1.0000
  H   H16       1.0  0.43283  0.68308  0.80741  1.0000
  H   H17       1.0  0.03453  0.92032  0.24532  1.0000
  H   H18       1.0  0.96548  0.07967  0.75468  1.0000
  H   H19       1.0  0.84042  0.86871  0.38602  1.0000
  H   H20       1.0  0.15958  0.13128  0.61398  1.0000
  H   H21       1.0  0.31327  0.17223  0.50050  1.0000
  H   H22       1.0  0.68673  0.82776  0.49950  1.0000
  H   H23       1.0  0.49856  0.22818  0.36071  1.0000
  H   H24       1.0  0.50145  0.77182  0.63929  1.0000
  H   H25       1.0  0.43671  0.34304  0.96433  1.0000
  H   H26       1.0  0.56330  0.65697  0.03567  1.0000
  H   H27       1.0  0.29235  0.42794  0.03501  1.0000
  H   H28       1.0  0.70765  0.57208  0.96499  1.0000
  C   C1        1.0  0.15135  0.66753  0.11610  1.0000
  C   C2        1.0  0.84865  0.33248  0.88390  1.0000
  C   C3        1.0  0.02377  0.54045  0.17800  1.0000
  C   C4        1.0  0.97626  0.45956  0.82201  1.0000
  C   C5        1.0  0.74032  0.57552  0.28524  1.0000
  C   C6        1.0  0.25969  0.42447  0.71477  1.0000
  C   C7        1.0  0.53524  0.65851  0.30210  1.0000
  C   C8        1.0  0.46476  0.34148  0.69791  1.0000
  C   C9        1.0  0.44260  0.62788  0.38533  1.0000
  C   C10       1.0  0.55738  0.37211  0.61467  1.0000
  C   C11       1.0  0.54991  0.51556  0.45571  1.0000
  C   C12       1.0  0.45007  0.48443  0.54428  1.0000
  C   C13       1.0  0.75558  0.43492  0.43721  1.0000
  C   C14       1.0  0.24441  0.56507  0.56280  1.0000
  C   C15       1.0  0.84968  0.46170  0.35356  1.0000
  C   C16       1.0  0.15033  0.53829  0.64645  1.0000
  C   C17       1.0  0.71733  0.12248  0.12379  1.0000
  C   C18       1.0  0.28266  0.87753  0.87620  1.0000
  C   C19       1.0  0.58972  0.17617  0.20196  1.0000
  C   C20       1.0  0.41027  0.82384  0.79803  1.0000
  C   C21       1.0  0.27818  0.07845  0.29235  1.0000
  C   C22       1.0  0.72182  0.92155  0.70765  1.0000
  C   C23       1.0  0.09132  0.97799  0.30142  1.0000
  C   C24       1.0  0.90868  0.02201  0.69858  1.0000
  C   C25       1.0  0.98386  0.94882  0.38206  1.0000
  C   C26       1.0  0.01614  0.05118  0.61794  1.0000
  C   C27       1.0  0.05771  0.01632  0.45704  1.0000
  C   C28       1.0  0.94229  0.98367  0.54296  1.0000
  C   C29       1.0  0.24650  0.11551  0.44581  1.0000
  C   C30       1.0  0.75349  0.88448  0.55419  1.0000
  C   C31       1.0  0.35539  0.14804  0.36509  1.0000
  C   C32       1.0  0.64461  0.85195  0.63491  1.0000
  O   O1        1.0  0.81612  0.61650  0.20138  1.0000
  O   O2        1.0  0.18390  0.38351  0.79863  1.0000
  O   O3        1.0  0.37726  0.09974  0.21035  1.0000
  O   O4        1.0  0.62273  0.90026  0.78965  1.0000
  O   O5        1.0  0.09002  0.82503  0.11095  1.0000
  O   O6        1.0  0.90998  0.17498  0.88906  1.0000
  O   O7        1.0  0.31659  0.60432  0.07857  1.0000
  O   O8        1.0  0.68340  0.39570  0.92143  1.0000
  O   O9        1.0  0.91081  0.17678  0.11416  1.0000
  O   O10       1.0  0.08917  0.82323  0.88583  1.0000
  O   O11       1.0  0.62298  0.02715  0.07560  1.0000
  O   O12       1.0  0.37702  0.97285  0.92439  1.0000
  O   O13       1.0  0.29280  0.33552  0.99691  1.0000
  O   O14       1.0  0.70721  0.66449  0.00310  1.0000
