data_image0
_chemical_formula_structural       Ca2H24C24S4O20
_chemical_formula_sum              "Ca2 H24 C24 S4 O20"
_cell_length_a       7.29023
_cell_length_b       11.5564
_cell_length_c       10.5441
_cell_angle_alpha    123.221
_cell_angle_beta     97.7992
_cell_angle_gamma    89.9691

_space_group_name_H-M_alt    "P 1"
_space_group_IT_number       1

loop_
  _space_group_symop_operation_xyz
  'x, y, z'

loop_
  _atom_site_type_symbol
  _atom_site_label
  _atom_site_symmetry_multiplicity
  _atom_site_fract_x
  _atom_site_fract_y
  _atom_site_fract_z
  _atom_site_occupancy
  Ca  Ca1       1.0  0.75009  0.95804  0.00014  1.0000
  Ca  Ca2       1.0  0.24992  0.04195  0.99986  1.0000
  H   H1        1.0  0.77714  0.98628  0.29395  1.0000
  H   H2        1.0  0.72319  0.69271  0.70619  1.0000
  H   H3        1.0  0.22287  0.01372  0.70605  1.0000
  H   H4        1.0  0.27681  0.30729  0.29382  1.0000
  H   H5        1.0  0.56065  0.96298  0.23123  1.0000
  H   H6        1.0  0.93969  0.73207  0.76885  1.0000
  H   H7        1.0  0.43936  0.03702  0.76878  1.0000
  H   H8        1.0  0.06032  0.26792  0.23115  1.0000
  H   H9        1.0  0.54660  0.11367  0.48225  1.0000
  H   H10       1.0  0.95300  0.63085  0.51779  1.0000
  H   H11       1.0  0.45340  0.88632  0.51775  1.0000
  H   H12       1.0  0.04699  0.36916  0.48220  1.0000
  H   H13       1.0  0.67105  0.34546  0.59170  1.0000
  H   H14       1.0  0.82851  0.75334  0.40846  1.0000
  H   H15       1.0  0.32894  0.65454  0.40832  1.0000
  H   H16       1.0  0.17148  0.24666  0.59153  1.0000
  H   H17       1.0  0.84531  0.54797  0.82315  1.0000
  H   H18       1.0  0.65479  0.72473  0.17696  1.0000
  H   H19       1.0  0.15468  0.45204  0.17686  1.0000
  H   H20       1.0  0.34519  0.27526  0.82303  1.0000
  H   H21       1.0  0.01583  0.29384  0.99485  1.0000
  H   H22       1.0  0.48413  0.29892  0.00497  1.0000
  H   H23       1.0  0.98420  0.70615  0.00514  1.0000
  H   H24       1.0  0.51585  0.70108  0.99503  1.0000
  C   C1        1.0  0.84162  0.19280  0.77642  1.0000
  C   C2        1.0  0.65789  0.41618  0.22362  1.0000
  C   C3        1.0  0.15840  0.80720  0.22357  1.0000
  C   C4        1.0  0.34210  0.58383  0.77638  1.0000
  C   C5        1.0  0.74293  0.20472  0.66010  1.0000
  C   C6        1.0  0.75639  0.54439  0.34005  1.0000
  C   C7        1.0  0.25708  0.79527  0.33990  1.0000
  C   C8        1.0  0.24360  0.45562  0.65994  1.0000
  C   C9        1.0  0.74792  0.33480  0.68050  1.0000
  C   C10       1.0  0.75160  0.65403  0.31967  1.0000
  C   C11       1.0  0.25207  0.66520  0.31952  1.0000
  C   C12       1.0  0.24838  0.34598  0.68032  1.0000
  C   C13       1.0  0.84740  0.44899  0.81275  1.0000
  C   C14       1.0  0.65254  0.63609  0.18730  1.0000
  C   C15       1.0  0.15259  0.55101  0.18726  1.0000
  C   C16       1.0  0.34745  0.36391  0.81269  1.0000
  C   C17       1.0  0.94700  0.43907  0.92992  1.0000
  C   C18       1.0  0.55302  0.50907  0.07004  1.0000
  C   C19       1.0  0.05300  0.56093  0.07009  1.0000
  C   C20       1.0  0.44697  0.49092  0.92995  1.0000
  C   C21       1.0  0.94206  0.30821  0.90842  1.0000
  C   C22       1.0  0.55794  0.39963  0.09145  1.0000
  C   C23       1.0  0.05795  0.69179  0.09158  1.0000
  C   C24       1.0  0.44204  0.60037  0.90855  1.0000
  S   S1        1.0  0.84677  0.02825  0.75069  1.0000
  S   S2        1.0  0.65287  0.27724  0.24913  1.0000
  S   S3        1.0  0.15324  0.97175  0.24930  1.0000
  S   S4        1.0  0.34713  0.72276  0.75087  1.0000
  O   O1        1.0  0.68412  0.93868  0.19973  1.0000
  O   O2        1.0  0.81627  0.73927  0.80038  1.0000
  O   O3        1.0  0.31589  0.06132  0.80027  1.0000
  O   O4        1.0  0.18374  0.26073  0.19962  1.0000
  O   O5        1.0  0.94027  0.05532  0.90270  1.0000
  O   O6        1.0  0.55958  0.15244  0.09699  1.0000
  O   O7        1.0  0.05973  0.94468  0.09730  1.0000
  O   O8        1.0  0.44043  0.84756  0.90301  1.0000
  O   O9        1.0  0.65444  0.96870  0.72176  1.0000
  O   O10       1.0  0.84527  0.24666  0.27813  1.0000
  O   O11       1.0  0.34557  0.03129  0.27824  1.0000
  O   O12       1.0  0.15473  0.75335  0.72187  1.0000
  O   O13       1.0  0.95380  0.94391  0.62837  1.0000
  O   O14       1.0  0.54575  0.31510  0.37135  1.0000
  O   O15       1.0  0.04621  0.05608  0.37163  1.0000
  O   O16       1.0  0.45427  0.68490  0.62865  1.0000
  O   O17       1.0  0.64785  0.08946  0.53281  1.0000
  O   O18       1.0  0.85149  0.55635  0.46734  1.0000
  O   O19       1.0  0.35215  0.91054  0.46719  1.0000
  O   O20       1.0  0.14850  0.44365  0.53266  1.0000
