data_image0
_chemical_formula_structural       Cd2H8C14N12O4
_chemical_formula_sum              "Cd2 H8 C14 N12 O4"
_cell_length_a       3.57557
_cell_length_b       11.4657
_cell_length_c       12.0052
_cell_angle_alpha    70.7805
_cell_angle_beta     82.8255
_cell_angle_gamma    87.4036

_space_group_name_H-M_alt    "P 1"
_space_group_IT_number       1

loop_
  _space_group_symop_operation_xyz
  'x, y, z'

loop_
  _atom_site_type_symbol
  _atom_site_label
  _atom_site_symmetry_multiplicity
  _atom_site_fract_x
  _atom_site_fract_y
  _atom_site_fract_z
  _atom_site_occupancy
  Cd  Cd1       1.0  0.31516  0.50063  0.36581  1.0000
  Cd  Cd2       1.0  0.68484  0.49937  0.63419  1.0000
  H   H1        1.0  0.11068  0.52439  0.09147  1.0000
  H   H2        1.0  0.88932  0.47561  0.90853  1.0000
  H   H3        1.0  0.72699  0.99828  0.40360  1.0000
  H   H4        1.0  0.27301  0.00172  0.59640  1.0000
  H   H5        1.0  0.68290  0.95797  0.21284  1.0000
  H   H6        1.0  0.31710  0.04203  0.78716  1.0000
  H   H7        1.0  0.43955  0.13186  0.04092  1.0000
  H   H8        1.0  0.56045  0.86814  0.95908  1.0000
  C   C1        1.0  0.21549  0.43080  0.12813  1.0000
  C   C2        1.0  0.78451  0.56920  0.87187  1.0000
  C   C3        1.0  0.42384  0.26731  0.25130  1.0000
  C   C4        1.0  0.57616  0.73269  0.74870  1.0000
  C   C5        1.0  0.63014  0.07139  0.32853  1.0000
  C   C6        1.0  0.36986  0.92861  0.67147  1.0000
  C   C7        1.0  0.60350  0.04745  0.22148  1.0000
  C   C8        1.0  0.39650  0.95256  0.77851  1.0000
  C   C9        1.0  0.47561  0.13866  0.12729  1.0000
  C   C10       1.0  0.52439  0.86134  0.87271  1.0000
  C   C11       1.0  0.80853  0.27867  0.54036  1.0000
  C   C12       1.0  0.19147  0.72133  0.45964  1.0000
  C   C13       1.0  0.87586  0.72284  0.18927  1.0000
  C   C14       1.0  0.12414  0.27716  0.81073  1.0000
  N   N1        1.0  0.24799  0.35226  0.06625  1.0000
  N   N2        1.0  0.75201  0.64774  0.93375  1.0000
  N   N3        1.0  0.31822  0.38483  0.23946  1.0000
  N   N4        1.0  0.68178  0.61517  0.76054  1.0000
  N   N5        1.0  0.54546  0.17992  0.34398  1.0000
  N   N6        1.0  0.45454  0.82008  0.65602  1.0000
  N   N7        1.0  0.38262  0.24829  0.14449  1.0000
  N   N8        1.0  0.61738  0.75171  0.85551  1.0000
  N   N9        1.0  0.76932  0.38890  0.48943  1.0000
  N   N10       1.0  0.23068  0.61110  0.51057  1.0000
  N   N11       1.0  0.83482  0.62249  0.26463  1.0000
  N   N12       1.0  0.16518  0.37751  0.73537  1.0000
  O   O1        1.0  0.85303  0.17210  0.59308  1.0000
  O   O2        1.0  0.14697  0.82790  0.40692  1.0000
  O   O3        1.0  0.92048  0.82258  0.11417  1.0000
  O   O4        1.0  0.07952  0.17742  0.88583  1.0000
