data_image0
_chemical_formula_structural       Cd2H8C10N20
_chemical_formula_sum              "Cd2 H8 C10 N20"
_cell_length_a       3.65137
_cell_length_b       11.4688
_cell_length_c       12.0227
_cell_angle_alpha    70.1426
_cell_angle_beta     81.7518
_cell_angle_gamma    87.1301

_space_group_name_H-M_alt    "P 1"
_space_group_IT_number       1

loop_
  _space_group_symop_operation_xyz
  'x, y, z'

loop_
  _atom_site_type_symbol
  _atom_site_label
  _atom_site_symmetry_multiplicity
  _atom_site_fract_x
  _atom_site_fract_y
  _atom_site_fract_z
  _atom_site_occupancy
  Cd  Cd1       1.0  0.32012  0.50015  0.36517  1.0000
  Cd  Cd2       1.0  0.67989  0.49985  0.63483  1.0000
  H   H1        1.0  0.09165  0.52567  0.09174  1.0000
  H   H2        1.0  0.90836  0.47433  0.90826  1.0000
  H   H3        1.0  0.75826  0.00559  0.39854  1.0000
  H   H4        1.0  0.24174  0.99442  0.60146  1.0000
  H   H5        1.0  0.71156  0.96467  0.20890  1.0000
  H   H6        1.0  0.28843  0.03532  0.79110  1.0000
  H   H7        1.0  0.44836  0.13588  0.03991  1.0000
  H   H8        1.0  0.55164  0.86412  0.96009  1.0000
  C   C1        1.0  0.20466  0.43313  0.12789  1.0000
  C   C2        1.0  0.79535  0.56687  0.87211  1.0000
  C   C3        1.0  0.42886  0.27146  0.24886  1.0000
  C   C4        1.0  0.57114  0.72854  0.75113  1.0000
  C   C5        1.0  0.65279  0.07770  0.32452  1.0000
  C   C6        1.0  0.34719  0.92230  0.67548  1.0000
  C   C7        1.0  0.62523  0.05342  0.21830  1.0000
  C   C8        1.0  0.37475  0.94658  0.78170  1.0000
  C   C9        1.0  0.48742  0.14331  0.12542  1.0000
  C   C10       1.0  0.51257  0.85669  0.87458  1.0000
  N   N1        1.0  0.24141  0.35481  0.06629  1.0000
  N   N2        1.0  0.75859  0.64519  0.93371  1.0000
  N   N3        1.0  0.31408  0.38806  0.23783  1.0000
  N   N4        1.0  0.68593  0.61194  0.76217  1.0000
  N   N5        1.0  0.56017  0.18557  0.34023  1.0000
  N   N6        1.0  0.43982  0.81443  0.65977  1.0000
  N   N7        1.0  0.38605  0.25204  0.14317  1.0000
  N   N8        1.0  0.61394  0.74796  0.85683  1.0000
  N   N9        1.0  0.77160  0.39179  0.48907  1.0000
  N   N10       1.0  0.22840  0.60821  0.51093  1.0000
  N   N11       1.0  0.80478  0.28016  0.53833  1.0000
  N   N12       1.0  0.19521  0.71984  0.46167  1.0000
  N   N13       1.0  0.84234  0.17537  0.58665  1.0000
  N   N14       1.0  0.15766  0.82463  0.41335  1.0000
  N   N15       1.0  0.84108  0.62391  0.26914  1.0000
  N   N16       1.0  0.15892  0.37609  0.73086  1.0000
  N   N17       1.0  0.87095  0.72395  0.19114  1.0000
  N   N18       1.0  0.12905  0.27605  0.80886  1.0000
  N   N19       1.0  0.90366  0.82030  0.11581  1.0000
  N   N20       1.0  0.09635  0.17970  0.88419  1.0000
