data_image0
_chemical_formula_structural       Cd2H16C24S4N20
_chemical_formula_sum              "Cd2 H16 C24 S4 N20"
_cell_length_a       8.433
_cell_length_b       10.3645
_cell_length_c       11.0075
_cell_angle_alpha    118.077
_cell_angle_beta     89.9999
_cell_angle_gamma    90

_space_group_name_H-M_alt    "P 1"
_space_group_IT_number       1

loop_
  _space_group_symop_operation_xyz
  'x, y, z'

loop_
  _atom_site_type_symbol
  _atom_site_label
  _atom_site_symmetry_multiplicity
  _atom_site_fract_x
  _atom_site_fract_y
  _atom_site_fract_z
  _atom_site_occupancy
  Cd  Cd1       1.0  0.50003  0.61742  0.99995  1.0000
  Cd  Cd2       1.0  0.99997  0.11741  0.99995  1.0000
  H   H1        1.0  0.74392  0.82351  0.91265  1.0000
  H   H2        1.0  0.25602  0.91079  0.08733  1.0000
  H   H3        1.0  0.24398  0.41079  0.08733  1.0000
  H   H4        1.0  0.75609  0.32351  0.91265  1.0000
  H   H5        1.0  0.66870  0.03315  0.55866  1.0000
  H   H6        1.0  0.33125  0.47455  0.44135  1.0000
  H   H7        1.0  0.16876  0.97455  0.44135  1.0000
  H   H8        1.0  0.83130  0.53315  0.55867  1.0000
  H   H9        1.0  0.87282  0.21596  0.56488  1.0000
  H   H10       1.0  0.12673  0.65082  0.43512  1.0000
  H   H11       1.0  0.37328  0.15082  0.43512  1.0000
  H   H12       1.0  0.62718  0.71597  0.56488  1.0000
  H   H13       1.0  0.96330  0.19788  0.33546  1.0000
  H   H14       1.0  0.03619  0.86208  0.66450  1.0000
  H   H15       1.0  0.46381  0.36208  0.66450  1.0000
  H   H16       1.0  0.53670  0.69788  0.33547  1.0000
  C   C1        1.0  0.74777  0.87466  0.02412  1.0000
  C   C2        1.0  0.25214  0.85044  0.97586  1.0000
  C   C3        1.0  0.24786  0.35044  0.97586  1.0000
  C   C4        1.0  0.75223  0.37465  0.02412  1.0000
  C   C5        1.0  0.70006  0.92170  0.23135  1.0000
  C   C6        1.0  0.29987  0.69037  0.76865  1.0000
  C   C7        1.0  0.20013  0.19037  0.76865  1.0000
  C   C8        1.0  0.79994  0.42170  0.23135  1.0000
  C   C9        1.0  0.71132  0.03021  0.46360  1.0000
  C   C10       1.0  0.28852  0.56659  0.53643  1.0000
  C   C11       1.0  0.21148  0.06659  0.53643  1.0000
  C   C12       1.0  0.78868  0.53021  0.46361  1.0000
  C   C13       1.0  0.82481  0.13228  0.46770  1.0000
  C   C14       1.0  0.17479  0.66435  0.53229  1.0000
  C   C15       1.0  0.32521  0.16435  0.53230  1.0000
  C   C16       1.0  0.67519  0.63228  0.46770  1.0000
  C   C17       1.0  0.87667  0.12601  0.34645  1.0000
  C   C18       1.0  0.12287  0.77929  0.65355  1.0000
  C   C19       1.0  0.37714  0.27929  0.65355  1.0000
  C   C20       1.0  0.62333  0.62601  0.34645  1.0000
  C   C21       1.0  0.19427  0.70975  0.21147  1.0000
  C   C22       1.0  0.80588  0.49838  0.78858  1.0000
  C   C23       1.0  0.69411  0.99838  0.78857  1.0000
  C   C24       1.0  0.30573  0.20974  0.21146  1.0000
  S   S1        1.0  0.00912  0.73238  0.25414  1.0000
  S   S2        1.0  0.99103  0.47848  0.74597  1.0000
  S   S3        1.0  0.50897  0.97848  0.74597  1.0000
  S   S4        1.0  0.49088  0.23238  0.25414  1.0000
  N   N1        1.0  0.84085  0.98989  0.09714  1.0000
  N   N2        1.0  0.15891  0.89258  0.90285  1.0000
  N   N3        1.0  0.34109  0.39258  0.90285  1.0000
  N   N4        1.0  0.65915  0.48988  0.09714  1.0000
  N   N5        1.0  0.66089  0.82911  0.09965  1.0000
  N   N6        1.0  0.33913  0.72949  0.90033  1.0000
  N   N7        1.0  0.16087  0.22949  0.90034  1.0000
  N   N8        1.0  0.83911  0.32911  0.09966  1.0000
  N   N9        1.0  0.64906  0.92576  0.34756  1.0000
  N   N10       1.0  0.35095  0.57826  0.65245  1.0000
  N   N11       1.0  0.14904  0.07826  0.65245  1.0000
  N   N12       1.0  0.85094  0.42575  0.34756  1.0000
  N   N13       1.0  0.81143  0.02002  0.22925  1.0000
  N   N14       1.0  0.18833  0.79064  0.77073  1.0000
  N   N15       1.0  0.31167  0.29064  0.77073  1.0000
  N   N16       1.0  0.68857  0.52002  0.22925  1.0000
  N   N17       1.0  0.33178  0.69362  0.18287  1.0000
  N   N18       1.0  0.66835  0.51074  0.81709  1.0000
  N   N19       1.0  0.83166  0.01074  0.81710  1.0000
  N   N20       1.0  0.16822  0.19362  0.18287  1.0000
