data_image0
_chemical_formula_structural       Li4H28C48O12
_chemical_formula_sum              "Li4 H28 C48 O12"
_cell_length_a       4.88221
_cell_length_b       12.2873
_cell_length_c       15.0017
_cell_angle_alpha    99.6951
_cell_angle_beta     90.0007
_cell_angle_gamma    90.0001

_space_group_name_H-M_alt    "P 1"
_space_group_IT_number       1

loop_
  _space_group_symop_operation_xyz
  'x, y, z'

loop_
  _atom_site_type_symbol
  _atom_site_label
  _atom_site_symmetry_multiplicity
  _atom_site_fract_x
  _atom_site_fract_y
  _atom_site_fract_z
  _atom_site_occupancy
  Li  Li1       1.0  0.92193  0.82870  0.49756  1.0000
  Li  Li2       1.0  0.42194  0.67129  0.50244  1.0000
  Li  Li3       1.0  0.07806  0.17130  0.50244  1.0000
  Li  Li4       1.0  0.57807  0.32871  0.49756  1.0000
  H   H1        1.0  0.96852  0.28137  0.70949  1.0000
  H   H2        1.0  0.46853  0.21863  0.29052  1.0000
  H   H3        1.0  0.03147  0.71863  0.29051  1.0000
  H   H4        1.0  0.53149  0.78137  0.70948  1.0000
  H   H5        1.0  0.05114  0.30882  0.87531  1.0000
  H   H6        1.0  0.55115  0.19118  0.12469  1.0000
  H   H7        1.0  0.94884  0.69118  0.12469  1.0000
  H   H8        1.0  0.44887  0.80881  0.87531  1.0000
  H   H9        1.0  0.75417  0.21196  0.97268  1.0000
  H   H10       1.0  0.25416  0.28803  0.02732  1.0000
  H   H11       1.0  0.24582  0.78803  0.02732  1.0000
  H   H12       1.0  0.74583  0.71196  0.97268  1.0000
  H   H13       1.0  0.39466  0.08374  0.98909  1.0000
  H   H14       1.0  0.89465  0.41625  0.01091  1.0000
  H   H15       1.0  0.60533  0.91625  0.01090  1.0000
  H   H16       1.0  0.10533  0.58374  0.98910  1.0000
  H   H17       1.0  0.03349  0.95054  0.92290  1.0000
  H   H18       1.0  0.53349  0.54946  0.07710  1.0000
  H   H19       1.0  0.96650  0.04945  0.07710  1.0000
  H   H20       1.0  0.46651  0.45055  0.92290  1.0000
  H   H21       1.0  0.97889  0.90800  0.75530  1.0000
  H   H22       1.0  0.47890  0.59200  0.24470  1.0000
  H   H23       1.0  0.02110  0.09199  0.24470  1.0000
  H   H24       1.0  0.52112  0.40801  0.75530  1.0000
  H   H25       1.0  0.45329  0.95291  0.59160  1.0000
  H   H26       1.0  0.95330  0.54709  0.40840  1.0000
  H   H27       1.0  0.54669  0.04710  0.40840  1.0000
  H   H28       1.0  0.04670  0.45291  0.59160  1.0000
  C   C1        1.0  0.64860  0.16397  0.71050  1.0000
  C   C2        1.0  0.14860  0.33604  0.28950  1.0000
  C   C3        1.0  0.35139  0.83604  0.28950  1.0000
  C   C4        1.0  0.85142  0.66396  0.71049  1.0000
  C   C5        1.0  0.84964  0.23499  0.75178  1.0000
  C   C6        1.0  0.34965  0.26501  0.24822  1.0000
  C   C7        1.0  0.15034  0.76501  0.24822  1.0000
  C   C8        1.0  0.65036  0.73499  0.75178  1.0000
  C   C9        1.0  0.89261  0.25149  0.84582  1.0000
  C   C10       1.0  0.39261  0.24852  0.15419  1.0000
  C   C11       1.0  0.10738  0.74852  0.15418  1.0000
  C   C12       1.0  0.60739  0.75148  0.84581  1.0000
  C   C13       1.0  0.72939  0.19759  0.89928  1.0000
  C   C14       1.0  0.22937  0.30241  0.10072  1.0000
  C   C15       1.0  0.27060  0.80242  0.10072  1.0000
  C   C16       1.0  0.77062  0.69758  0.89927  1.0000
  C   C17       1.0  0.52756  0.12114  0.86017  1.0000
  C   C18       1.0  0.02756  0.37886  0.13983  1.0000
  C   C19       1.0  0.47244  0.87886  0.13983  1.0000
  C   C20       1.0  0.97245  0.62114  0.86017  1.0000
  C   C21       1.0  0.36187  0.06589  0.91620  1.0000
  C   C22       1.0  0.86186  0.43411  0.08380  1.0000
  C   C23       1.0  0.63812  0.93411  0.08380  1.0000
  C   C24       1.0  0.13814  0.56589  0.91620  1.0000
  C   C25       1.0  0.16299  0.99215  0.87980  1.0000
  C   C26       1.0  0.66299  0.50786  0.12020  1.0000
  C   C27       1.0  0.83701  0.00786  0.12020  1.0000
  C   C28       1.0  0.33701  0.49214  0.87980  1.0000
  C   C29       1.0  0.12957  0.96865  0.78538  1.0000
  C   C30       1.0  0.62957  0.53135  0.21462  1.0000
  C   C31       1.0  0.87042  0.03135  0.21462  1.0000
  C   C32       1.0  0.37043  0.46866  0.78538  1.0000
  C   C33       1.0  0.29132  0.01883  0.72787  1.0000
  C   C34       1.0  0.79131  0.48117  0.27213  1.0000
  C   C35       1.0  0.70867  0.98117  0.27212  1.0000
  C   C36       1.0  0.20870  0.51882  0.72787  1.0000
  C   C37       1.0  0.49026  0.10019  0.76361  1.0000
  C   C38       1.0  0.99026  0.39981  0.23639  1.0000
  C   C39       1.0  0.50974  0.89981  0.23639  1.0000
  C   C40       1.0  0.00974  0.60019  0.76361  1.0000
  C   C41       1.0  0.57998  0.17172  0.61409  1.0000
  C   C42       1.0  0.07998  0.32829  0.38591  1.0000
  C   C43       1.0  0.42002  0.82829  0.38591  1.0000
  C   C44       1.0  0.92004  0.67171  0.61409  1.0000
  C   C45       1.0  0.26174  0.97338  0.63014  1.0000
  C   C46       1.0  0.76173  0.52662  0.36986  1.0000
  C   C47       1.0  0.73826  0.02662  0.36986  1.0000
  C   C48       1.0  0.23829  0.47338  0.63015  1.0000
  O   O1        1.0  0.74438  0.22155  0.56876  1.0000
  O   O2        1.0  0.24438  0.27845  0.43124  1.0000
  O   O3        1.0  0.25563  0.77845  0.43124  1.0000
  O   O4        1.0  0.75565  0.72154  0.56875  1.0000
  O   O5        1.0  0.34746  0.13527  0.58424  1.0000
  O   O6        1.0  0.84746  0.36474  0.41576  1.0000
  O   O7        1.0  0.65253  0.86474  0.41576  1.0000
  O   O8        1.0  0.15255  0.63526  0.58424  1.0000
  O   O9        1.0  0.03789  0.93915  0.59770  1.0000
  O   O10       1.0  0.53788  0.56085  0.40230  1.0000
  O   O11       1.0  0.96211  0.06086  0.40230  1.0000
  O   O12       1.0  0.46212  0.43914  0.59770  1.0000
