data_image0
_chemical_formula_structural       Cu2H32C32N8O8
_chemical_formula_sum              "Cu2 H32 C32 N8 O8"
_cell_length_a       8.32021
_cell_length_b       8.80829
_cell_length_c       13.7827
_cell_angle_alpha    73.459
_cell_angle_beta     72.4113
_cell_angle_gamma    61.7935

_space_group_name_H-M_alt    "P 1"
_space_group_IT_number       1

loop_
  _space_group_symop_operation_xyz
  'x, y, z'

loop_
  _atom_site_type_symbol
  _atom_site_label
  _atom_site_symmetry_multiplicity
  _atom_site_fract_x
  _atom_site_fract_y
  _atom_site_fract_z
  _atom_site_occupancy
  Cu  Cu1       1.0  1.00000  0.00000  0.00000  1.0000
  Cu  Cu2       1.0  1.00000  0.50000  0.50000  1.0000
  H   H1        1.0  0.45123  0.13111  0.93771  1.0000
  H   H2        1.0  0.52011  0.36866  0.56239  1.0000
  H   H3        1.0  0.54879  0.86890  0.06229  1.0000
  H   H4        1.0  0.47991  0.63134  0.43761  1.0000
  H   H5        1.0  0.10927  0.04533  0.75464  1.0000
  H   H6        1.0  0.90862  0.45465  0.74533  1.0000
  H   H7        1.0  0.89072  0.95467  0.24537  1.0000
  H   H8        1.0  0.09138  0.54535  0.25467  1.0000
  H   H9        1.0  0.58124  0.56132  0.78798  1.0000
  H   H10       1.0  0.93107  0.93796  0.71209  1.0000
  H   H11       1.0  0.41875  0.43868  0.21202  1.0000
  H   H12       1.0  0.06893  0.06203  0.28790  1.0000
  H   H13       1.0  0.37041  0.63365  0.98213  1.0000
  H   H14       1.0  0.98683  0.86582  0.51794  1.0000
  H   H15       1.0  0.62958  0.36634  0.01788  1.0000
  H   H16       1.0  0.01316  0.13417  0.48205  1.0000
  H   H17       1.0  0.20622  0.19612  0.84515  1.0000
  H   H18       1.0  0.24767  0.30338  0.65499  1.0000
  H   H19       1.0  0.79379  0.80388  0.15485  1.0000
  H   H20       1.0  0.75234  0.69662  0.34501  1.0000
  H   H21       1.0  0.42863  0.72331  0.59987  1.0000
  H   H22       1.0  0.75111  0.77671  0.90001  1.0000
  H   H23       1.0  0.57136  0.27670  0.40013  1.0000
  H   H24       1.0  0.24890  0.22330  0.09999  1.0000
  H   H25       1.0  0.55582  0.83581  0.60417  1.0000
  H   H26       1.0  0.99518  0.66410  0.89588  1.0000
  H   H27       1.0  0.44416  0.16419  0.39584  1.0000
  H   H28       1.0  0.00482  0.33590  0.10411  1.0000
  H   H29       1.0  0.31481  0.95600  0.59492  1.0000
  H   H30       1.0  0.86511  0.54395  0.90518  1.0000
  H   H31       1.0  0.68518  0.04399  0.40509  1.0000
  H   H32       1.0  0.13489  0.45605  0.09481  1.0000
  C   C1        1.0  0.76160  0.18015  0.86477  1.0000
  C   C2        1.0  0.80674  0.31936  0.63520  1.0000
  C   C3        1.0  0.23841  0.81985  0.13522  1.0000
  C   C4        1.0  0.19326  0.68065  0.36480  1.0000
  C   C5        1.0  0.62281  0.21482  0.80315  1.0000
  C   C6        1.0  0.64086  0.28493  0.69691  1.0000
  C   C7        1.0  0.37720  0.78519  0.19685  1.0000
  C   C8        1.0  0.35914  0.71507  0.30309  1.0000
  C   C9        1.0  0.46585  0.18301  0.85526  1.0000
  C   C10       1.0  0.50418  0.31678  0.64484  1.0000
  C   C11       1.0  0.53416  0.81698  0.14474  1.0000
  C   C12       1.0  0.49583  0.68321  0.35516  1.0000
  C   C13       1.0  0.20703  0.92507  0.79245  1.0000
  C   C14       1.0  0.92420  0.57478  0.70759  1.0000
  C   C15       1.0  0.79296  0.07493  0.20756  1.0000
  C   C16       1.0  0.07580  0.42522  0.29241  1.0000
  C   C17       1.0  0.45367  0.67244  0.81042  1.0000
  C   C18       1.0  0.93679  0.82705  0.68965  1.0000
  C   C19       1.0  0.54632  0.32755  0.18959  1.0000
  C   C20       1.0  0.06321  0.17295  0.31034  1.0000
  C   C21       1.0  0.34905  0.70892  0.90621  1.0000
  C   C22       1.0  0.96458  0.79063  0.59385  1.0000
  C   C23       1.0  0.65095  0.29108  0.09380  1.0000
  C   C24       1.0  0.03542  0.20936  0.40614  1.0000
  C   C25       1.0  0.32904  0.21846  0.80312  1.0000
  C   C26       1.0  0.35072  0.28116  0.69701  1.0000
  C   C27       1.0  0.67097  0.78155  0.19689  1.0000
  C   C28       1.0  0.64929  0.71884  0.30299  1.0000
  C   C29       1.0  0.41897  0.83281  0.62755  1.0000
  C   C30       1.0  0.87878  0.66709  0.87248  1.0000
  C   C31       1.0  0.58102  0.16719  0.37246  1.0000
  C   C32       1.0  0.12123  0.33292  0.12751  1.0000
  N   N1        1.0  0.19534  0.86676  0.89385  1.0000
  N   N2        1.0  0.95594  0.63302  0.60619  1.0000
  N   N3        1.0  0.80465  0.13324  0.10616  1.0000
  N   N4        1.0  0.04406  0.36697  0.39381  1.0000
  N   N5        1.0  0.36201  0.81065  0.73967  1.0000
  N   N6        1.0  0.91214  0.68903  0.76038  1.0000
  N   N7        1.0  0.63797  0.18935  0.26034  1.0000
  N   N8        1.0  0.08786  0.31097  0.23962  1.0000
  O   O1        1.0  0.80668  0.03301  0.92758  1.0000
  O   O2        1.0  0.76743  0.46670  0.57258  1.0000
  O   O3        1.0  0.19333  0.96699  0.07242  1.0000
  O   O4        1.0  0.23256  0.53330  0.42741  1.0000
  O   O5        1.0  0.82265  0.29071  0.85575  1.0000
  O   O6        1.0  0.96938  0.20849  0.64400  1.0000
  O   O7        1.0  0.17735  0.70931  0.14425  1.0000
  O   O8        1.0  0.03063  0.79153  0.35601  1.0000
