data_image0
_chemical_formula_structural       Cs4H20C16O24
_chemical_formula_sum              "Cs4 H20 C16 O24"
_cell_length_a       7.69996
_cell_length_b       8.05117
_cell_length_c       12.0841
_cell_angle_alpha    90
_cell_angle_beta     103.046
_cell_angle_gamma    90.0001

_space_group_name_H-M_alt    "P 1"
_space_group_IT_number       1

loop_
  _space_group_symop_operation_xyz
  'x, y, z'

loop_
  _atom_site_type_symbol
  _atom_site_label
  _atom_site_symmetry_multiplicity
  _atom_site_fract_x
  _atom_site_fract_y
  _atom_site_fract_z
  _atom_site_occupancy
  Cs  Cs1       1.0  0.76937  0.07829  0.52920  1.0000
  Cs  Cs2       1.0  0.23062  0.57829  0.97080  1.0000
  Cs  Cs3       1.0  0.23062  0.92171  0.47080  1.0000
  Cs  Cs4       1.0  0.76938  0.42171  0.02920  1.0000
  H   H1        1.0  0.12889  0.63813  0.24423  1.0000
  H   H2        1.0  0.87111  0.13813  0.25577  1.0000
  H   H3        1.0  0.87111  0.36187  0.75577  1.0000
  H   H4        1.0  0.12889  0.86186  0.74423  1.0000
  H   H5        1.0  0.12878  0.20716  0.15479  1.0000
  H   H6        1.0  0.87122  0.70716  0.34521  1.0000
  H   H7        1.0  0.87122  0.79284  0.84521  1.0000
  H   H8        1.0  0.12878  0.29284  0.65479  1.0000
  H   H9        1.0  0.71466  0.42768  0.35539  1.0000
  H   H10       1.0  0.28534  0.92768  0.14461  1.0000
  H   H11       1.0  0.28534  0.57232  0.64461  1.0000
  H   H12       1.0  0.71466  0.07232  0.85539  1.0000
  H   H13       1.0  0.29516  0.44433  0.43900  1.0000
  H   H14       1.0  0.70484  0.94433  0.06100  1.0000
  H   H15       1.0  0.70484  0.55567  0.56100  1.0000
  H   H16       1.0  0.29516  0.05567  0.93900  1.0000
  H   H17       1.0  0.30532  0.21145  0.31404  1.0000
  H   H18       1.0  0.69468  0.71145  0.18596  1.0000
  H   H19       1.0  0.69468  0.78856  0.68596  1.0000
  H   H20       1.0  0.30532  0.28855  0.81405  1.0000
  C   C1        1.0  0.02295  0.38865  0.36215  1.0000
  C   C2        1.0  0.97705  0.88865  0.13785  1.0000
  C   C3        1.0  0.97705  0.61134  0.63785  1.0000
  C   C4        1.0  0.02295  0.11134  0.86215  1.0000
  C   C5        1.0  0.20827  0.45210  0.35307  1.0000
  C   C6        1.0  0.79173  0.95210  0.14693  1.0000
  C   C7        1.0  0.79173  0.54790  0.64693  1.0000
  C   C8        1.0  0.20827  0.04790  0.85307  1.0000
  C   C9        1.0  0.28548  0.33514  0.27469  1.0000
  C   C10       1.0  0.71452  0.83514  0.22531  1.0000
  C   C11       1.0  0.71452  0.66487  0.72530  1.0000
  C   C12       1.0  0.28548  0.16486  0.77470  1.0000
  C   C13       1.0  0.46929  0.39832  0.26627  1.0000
  C   C14       1.0  0.53071  0.89832  0.23373  1.0000
  C   C15       1.0  0.53071  0.60168  0.73373  1.0000
  C   C16       1.0  0.46929  0.10168  0.76627  1.0000
  O   O1        1.0  0.89550  0.49415  0.35138  1.0000
  O   O2        1.0  0.10450  0.99416  0.14862  1.0000
  O   O3        1.0  0.10451  0.50584  0.64862  1.0000
  O   O4        1.0  0.89550  0.00585  0.85138  1.0000
  O   O5        1.0  0.00761  0.23523  0.37952  1.0000
  O   O6        1.0  0.99239  0.73523  0.12048  1.0000
  O   O7        1.0  0.99239  0.76478  0.62048  1.0000
  O   O8        1.0  0.00761  0.26478  0.87952  1.0000
  O   O9        1.0  0.21094  0.62012  0.31922  1.0000
  O   O10       1.0  0.78906  0.12012  0.18078  1.0000
  O   O11       1.0  0.78906  0.37988  0.68078  1.0000
  O   O12       1.0  0.21094  0.87988  0.81922  1.0000
  O   O13       1.0  0.16849  0.32506  0.16570  1.0000
  O   O14       1.0  0.83151  0.82506  0.33430  1.0000
  O   O15       1.0  0.83151  0.67494  0.83430  1.0000
  O   O16       1.0  0.16849  0.17494  0.66570  1.0000
  O   O17       1.0  0.50147  0.45615  0.17863  1.0000
  O   O18       1.0  0.49853  0.95615  0.32137  1.0000
  O   O19       1.0  0.49853  0.54385  0.82137  1.0000
  O   O20       1.0  0.50147  0.04385  0.67863  1.0000
  O   O21       1.0  0.58909  0.38507  0.36388  1.0000
  O   O22       1.0  0.41091  0.88507  0.13612  1.0000
  O   O23       1.0  0.41091  0.61493  0.63612  1.0000
  O   O24       1.0  0.58909  0.11493  0.86388  1.0000
