data_image0
_chemical_formula_structural       Rb4H20C16O24
_chemical_formula_sum              "Rb4 H20 C16 O24"
_cell_length_a       7.65228
_cell_length_b       7.88641
_cell_length_c       11.5525
_cell_angle_alpha    90.0001
_cell_angle_beta     102.904
_cell_angle_gamma    90.0002

_space_group_name_H-M_alt    "P 1"
_space_group_IT_number       1

loop_
  _space_group_symop_operation_xyz
  'x, y, z'

loop_
  _atom_site_type_symbol
  _atom_site_label
  _atom_site_symmetry_multiplicity
  _atom_site_fract_x
  _atom_site_fract_y
  _atom_site_fract_z
  _atom_site_occupancy
  Rb  Rb1       1.0  0.77227  0.07674  0.52861  1.0000
  Rb  Rb2       1.0  0.77227  0.42326  0.02861  1.0000
  Rb  Rb3       1.0  0.22773  0.92326  0.47139  1.0000
  Rb  Rb4       1.0  0.22773  0.57674  0.97139  1.0000
  H   H1        1.0  0.13268  0.64062  0.24649  1.0000
  H   H2        1.0  0.13269  0.85938  0.74650  1.0000
  H   H3        1.0  0.86732  0.35938  0.75350  1.0000
  H   H4        1.0  0.86731  0.14062  0.25350  1.0000
  H   H5        1.0  0.12225  0.20988  0.14557  1.0000
  H   H6        1.0  0.12225  0.29012  0.64557  1.0000
  H   H7        1.0  0.87775  0.79012  0.85443  1.0000
  H   H8        1.0  0.87775  0.70988  0.35443  1.0000
  H   H9        1.0  0.71765  0.42189  0.35497  1.0000
  H   H10       1.0  0.71765  0.07811  0.85497  1.0000
  H   H11       1.0  0.28236  0.57811  0.64503  1.0000
  H   H12       1.0  0.28235  0.92188  0.14503  1.0000
  H   H13       1.0  0.30095  0.43783  0.44643  1.0000
  H   H14       1.0  0.30095  0.06218  0.94643  1.0000
  H   H15       1.0  0.69905  0.56217  0.55357  1.0000
  H   H16       1.0  0.69904  0.93782  0.05357  1.0000
  H   H17       1.0  0.30218  0.20480  0.30974  1.0000
  H   H18       1.0  0.30219  0.29521  0.80974  1.0000
  H   H19       1.0  0.69782  0.79520  0.69026  1.0000
  H   H20       1.0  0.69781  0.70479  0.19026  1.0000
  C   C1        1.0  0.02553  0.38482  0.36661  1.0000
  C   C2        1.0  0.02553  0.11518  0.86661  1.0000
  C   C3        1.0  0.97447  0.61518  0.63339  1.0000
  C   C4        1.0  0.97447  0.88482  0.13339  1.0000
  C   C5        1.0  0.21204  0.44958  0.35761  1.0000
  C   C6        1.0  0.21204  0.05042  0.85762  1.0000
  C   C7        1.0  0.78796  0.55042  0.64238  1.0000
  C   C8        1.0  0.78796  0.94958  0.14238  1.0000
  C   C9        1.0  0.28459  0.33301  0.27157  1.0000
  C   C10       1.0  0.28460  0.16700  0.77157  1.0000
  C   C11       1.0  0.71541  0.66699  0.72843  1.0000
  C   C12       1.0  0.71540  0.83300  0.22843  1.0000
  C   C13       1.0  0.47020  0.39385  0.26158  1.0000
  C   C14       1.0  0.47021  0.10615  0.76158  1.0000
  C   C15       1.0  0.52980  0.60615  0.73842  1.0000
  C   C16       1.0  0.52979  0.89385  0.23842  1.0000
  O   O1        1.0  0.89691  0.49234  0.35344  1.0000
  O   O2        1.0  0.89692  0.00766  0.85344  1.0000
  O   O3        1.0  0.10309  0.50766  0.64656  1.0000
  O   O4        1.0  0.10308  0.99234  0.14656  1.0000
  O   O5        1.0  0.00890  0.22824  0.38449  1.0000
  O   O6        1.0  0.00891  0.27176  0.88449  1.0000
  O   O7        1.0  0.99110  0.77176  0.61551  1.0000
  O   O8        1.0  0.99109  0.72824  0.11551  1.0000
  O   O9        1.0  0.21475  0.62244  0.32513  1.0000
  O   O10       1.0  0.21476  0.87756  0.82513  1.0000
  O   O11       1.0  0.78525  0.37756  0.67487  1.0000
  O   O12       1.0  0.78524  0.12244  0.17487  1.0000
  O   O13       1.0  0.16360  0.32956  0.15872  1.0000
  O   O14       1.0  0.16360  0.17044  0.65872  1.0000
  O   O15       1.0  0.83640  0.67045  0.84128  1.0000
  O   O16       1.0  0.83640  0.82956  0.34128  1.0000
  O   O17       1.0  0.50248  0.45253  0.16958  1.0000
  O   O18       1.0  0.50248  0.04747  0.66958  1.0000
  O   O19       1.0  0.49752  0.54747  0.83042  1.0000
  O   O20       1.0  0.49751  0.95253  0.33042  1.0000
  O   O21       1.0  0.59075  0.37747  0.36299  1.0000
  O   O22       1.0  0.59075  0.12253  0.86299  1.0000
  O   O23       1.0  0.40925  0.62253  0.63701  1.0000
  O   O24       1.0  0.40925  0.87746  0.13701  1.0000
