data_image0
_chemical_formula_structural       K4H20C16O24
_chemical_formula_sum              "K4 H20 C16 O24"
_cell_length_a       7.61383
_cell_length_b       7.72518
_cell_length_c       11.1726
_cell_angle_alpha    89.9997
_cell_angle_beta     102.364
_cell_angle_gamma    90.0004

_space_group_name_H-M_alt    "P 1"
_space_group_IT_number       1

loop_
  _space_group_symop_operation_xyz
  'x, y, z'

loop_
  _atom_site_type_symbol
  _atom_site_label
  _atom_site_symmetry_multiplicity
  _atom_site_fract_x
  _atom_site_fract_y
  _atom_site_fract_z
  _atom_site_occupancy
  K   K1        1.0  0.77369  0.07433  0.52764  1.0000
  K   K2        1.0  0.22631  0.57434  0.97236  1.0000
  K   K3        1.0  0.22632  0.92567  0.47236  1.0000
  K   K4        1.0  0.77370  0.42566  0.02764  1.0000
  H   H1        1.0  0.71898  0.42124  0.35384  1.0000
  H   H2        1.0  0.28102  0.92125  0.14616  1.0000
  H   H3        1.0  0.28102  0.57876  0.64617  1.0000
  H   H4        1.0  0.71898  0.07875  0.85384  1.0000
  H   H5        1.0  0.30395  0.43639  0.45156  1.0000
  H   H6        1.0  0.69605  0.93640  0.04844  1.0000
  H   H7        1.0  0.69605  0.56361  0.54844  1.0000
  H   H8        1.0  0.30395  0.06361  0.95156  1.0000
  H   H9        1.0  0.30005  0.20278  0.30599  1.0000
  H   H10       1.0  0.69995  0.70279  0.19401  1.0000
  H   H11       1.0  0.69995  0.79721  0.69401  1.0000
  H   H12       1.0  0.30005  0.29721  0.80599  1.0000
  H   H13       1.0  0.11813  0.21518  0.13905  1.0000
  H   H14       1.0  0.88187  0.71518  0.36095  1.0000
  H   H15       1.0  0.88188  0.78482  0.86095  1.0000
  H   H16       1.0  0.11813  0.28481  0.63905  1.0000
  H   H17       1.0  0.13461  0.64620  0.24815  1.0000
  H   H18       1.0  0.86539  0.14620  0.25185  1.0000
  H   H19       1.0  0.86539  0.35380  0.75185  1.0000
  H   H20       1.0  0.13461  0.85380  0.74815  1.0000
  C   C1        1.0  0.02693  0.38412  0.36974  1.0000
  C   C2        1.0  0.97307  0.88411  0.13026  1.0000
  C   C3        1.0  0.97307  0.61588  0.63026  1.0000
  C   C4        1.0  0.02693  0.11589  0.86974  1.0000
  C   C5        1.0  0.21398  0.45108  0.36093  1.0000
  C   C6        1.0  0.78602  0.95108  0.13907  1.0000
  C   C7        1.0  0.78602  0.54892  0.63907  1.0000
  C   C8        1.0  0.21398  0.04892  0.86093  1.0000
  C   C9        1.0  0.28418  0.33504  0.26893  1.0000
  C   C10       1.0  0.71581  0.83504  0.23107  1.0000
  C   C11       1.0  0.71582  0.66496  0.73107  1.0000
  C   C12       1.0  0.28419  0.16496  0.76893  1.0000
  C   C13       1.0  0.47074  0.39453  0.25724  1.0000
  C   C14       1.0  0.52926  0.89454  0.24276  1.0000
  C   C15       1.0  0.52926  0.60547  0.74277  1.0000
  C   C16       1.0  0.47074  0.10547  0.75724  1.0000
  O   O1        1.0  0.89729  0.49343  0.35433  1.0000
  O   O2        1.0  0.10271  0.99342  0.14567  1.0000
  O   O3        1.0  0.10271  0.50657  0.64567  1.0000
  O   O4        1.0  0.89729  0.00657  0.85433  1.0000
  O   O5        1.0  0.00949  0.22435  0.38813  1.0000
  O   O6        1.0  0.99050  0.72435  0.11187  1.0000
  O   O7        1.0  0.99051  0.77565  0.61187  1.0000
  O   O8        1.0  0.00949  0.27565  0.88813  1.0000
  O   O9        1.0  0.21592  0.62852  0.32951  1.0000
  O   O10       1.0  0.78408  0.12852  0.17049  1.0000
  O   O11       1.0  0.78408  0.37147  0.67049  1.0000
  O   O12       1.0  0.21592  0.87148  0.82951  1.0000
  O   O13       1.0  0.16142  0.33655  0.15364  1.0000
  O   O14       1.0  0.83857  0.83655  0.34636  1.0000
  O   O15       1.0  0.83858  0.66345  0.84637  1.0000
  O   O16       1.0  0.16143  0.16345  0.65363  1.0000
  O   O17       1.0  0.50389  0.45348  0.16171  1.0000
  O   O18       1.0  0.49611  0.95350  0.33829  1.0000
  O   O19       1.0  0.49611  0.54652  0.83830  1.0000
  O   O20       1.0  0.50389  0.04651  0.66171  1.0000
  O   O21       1.0  0.59071  0.37593  0.36127  1.0000
  O   O22       1.0  0.40929  0.87593  0.13873  1.0000
  O   O23       1.0  0.40929  0.62407  0.63873  1.0000
  O   O24       1.0  0.59071  0.12407  0.86127  1.0000
