data_image0
_chemical_formula_structural       Zn2H34C36N8O10
_chemical_formula_sum              "Zn2 H34 C36 N8 O10"
_cell_length_a       9.66696
_cell_length_b       9.96112
_cell_length_c       10.6722
_cell_angle_alpha    83.4771
_cell_angle_beta     64.48
_cell_angle_gamma    71.0857

_space_group_name_H-M_alt    "P 1"
_space_group_IT_number       1

loop_
  _space_group_symop_operation_xyz
  'x, y, z'

loop_
  _atom_site_type_symbol
  _atom_site_label
  _atom_site_symmetry_multiplicity
  _atom_site_fract_x
  _atom_site_fract_y
  _atom_site_fract_z
  _atom_site_occupancy
  Zn  Zn1       1.0  0.83788  0.18225  0.36569  1.0000
  Zn  Zn2       1.0  0.16212  0.81775  0.63431  1.0000
  H   H1        1.0  0.60525  0.49836  0.75503  1.0000
  H   H2        1.0  0.39475  0.50163  0.24497  1.0000
  H   H3        1.0  0.57374  0.33783  0.15746  1.0000
  H   H4        1.0  0.42626  0.66217  0.84254  1.0000
  H   H5        1.0  0.81180  0.13527  0.04184  1.0000
  H   H6        1.0  0.18821  0.86473  0.95816  1.0000
  H   H7        1.0  0.66063  0.01173  0.27969  1.0000
  H   H8        1.0  0.33937  0.98827  0.72031  1.0000
  H   H9        1.0  0.46797  0.39720  0.50877  1.0000
  H   H10       1.0  0.53203  0.60280  0.49123  1.0000
  H   H11       1.0  0.21680  0.32815  0.49104  1.0000
  H   H12       1.0  0.78320  0.67185  0.50896  1.0000
  H   H13       1.0  0.20445  0.13983  0.37217  1.0000
  H   H14       1.0  0.79555  0.86017  0.62783  1.0000
  H   H15       1.0  0.32641  0.97513  0.40088  1.0000
  H   H16       1.0  0.67359  0.02487  0.59913  1.0000
  H   H17       1.0  0.32935  0.99184  0.16162  1.0000
  H   H18       1.0  0.67065  0.00816  0.83838  1.0000
  H   H19       1.0  0.41829  0.13129  0.12500  1.0000
  H   H20       1.0  0.58171  0.86871  0.87500  1.0000
  H   H21       1.0  0.52902  0.75330  0.10713  1.0000
  H   H22       1.0  0.47098  0.24669  0.89287  1.0000
  H   H23       1.0  0.49215  0.78509  0.28068  1.0000
  H   H24       1.0  0.50785  0.21491  0.71932  1.0000
  H   H25       1.0  0.79166  0.75512  0.19641  1.0000
  H   H26       1.0  0.20834  0.24488  0.80359  1.0000
  H   H27       1.0  0.74207  0.60007  0.18936  1.0000
  H   H28       1.0  0.25794  0.39993  0.81064  1.0000
  H   H29       1.0  0.95358  0.85400  0.97062  1.0000
  H   H30       1.0  0.04642  0.14600  0.02938  1.0000
  H   H31       1.0  0.80993  0.50329  0.94459  1.0000
  H   H32       1.0  0.19007  0.49671  0.05541  1.0000
  H   H33       1.0  0.02248  0.55382  0.68083  1.0000
  H   H34       1.0  0.97752  0.44618  0.31917  1.0000
  C   C1        1.0  0.85552  0.29048  0.59826  1.0000
  C   C2        1.0  0.14449  0.70952  0.40174  1.0000
  C   C3        1.0  0.78253  0.30384  0.75454  1.0000
  C   C4        1.0  0.21747  0.69616  0.24546  1.0000
  C   C5        1.0  0.64853  0.42035  0.82055  1.0000
  C   C6        1.0  0.35146  0.57965  0.17945  1.0000
  C   C7        1.0  0.57040  0.43759  0.96605  1.0000
  C   C8        1.0  0.42959  0.56241  0.03395  1.0000
  C   C9        1.0  0.63104  0.33131  0.04445  1.0000
  C   C10       1.0  0.36896  0.66869  0.95555  1.0000
  C   C11       1.0  0.76638  0.21658  0.97969  1.0000
  C   C12       1.0  0.23362  0.78342  0.02031  1.0000
  C   C13       1.0  0.84472  0.20166  0.83443  1.0000
  C   C14       1.0  0.15528  0.79834  0.16557  1.0000
  C   C15       1.0  0.98899  0.07421  0.77262  1.0000
  C   C16       1.0  0.01101  0.92579  0.22738  1.0000
  C   C17       1.0  0.57480  0.10558  0.34223  1.0000
  C   C18       1.0  0.42520  0.89442  0.65778  1.0000
  C   C19       1.0  0.47060  0.30730  0.45845  1.0000
  C   C20       1.0  0.52940  0.69270  0.54155  1.0000
  C   C21       1.0  0.34585  0.27571  0.45111  1.0000
  C   C22       1.0  0.65415  0.72429  0.54889  1.0000
  C   C23       1.0  0.32956  0.07160  0.34007  1.0000
  C   C24       1.0  0.67044  0.92840  0.65993  1.0000
  C   C25       1.0  0.40739  0.03513  0.18495  1.0000
  C   C26       1.0  0.59261  0.96487  0.81505  1.0000
  C   C27       1.0  0.57167  0.79445  0.17101  1.0000
  C   C28       1.0  0.42833  0.20554  0.82900  1.0000
  C   C29       1.0  0.74252  0.70518  0.14553  1.0000
  C   C30       1.0  0.25748  0.29482  0.85447  1.0000
  C   C31       1.0  0.94686  0.76585  0.92443  1.0000
  C   C32       1.0  0.05314  0.23415  0.07557  1.0000
  C   C33       1.0  0.87251  0.58219  0.90895  1.0000
  C   C34       1.0  0.12749  0.41781  0.09105  1.0000
  C   C35       1.0  0.98018  0.60601  0.78020  1.0000
  C   C36       1.0  0.01982  0.39399  0.21980  1.0000
  N   N1        1.0  0.61298  0.20063  0.38951  1.0000
  N   N2        1.0  0.38702  0.79936  0.61049  1.0000
  N   N3        1.0  0.41447  0.14778  0.37698  1.0000
  N   N4        1.0  0.58553  0.85222  0.62302  1.0000
  N   N5        1.0  0.85288  0.68399  0.99837  1.0000
  N   N6        1.0  0.14712  0.31601  0.00163  1.0000
  N   N7        1.0  0.02654  0.72033  0.79143  1.0000
  N   N8        1.0  0.97346  0.27967  0.20857  1.0000
  O   O1        1.0  0.76279  0.26433  0.55166  1.0000
  O   O2        1.0  0.23721  0.73568  0.44833  1.0000
  O   O3        1.0  0.98897  0.30864  0.52750  1.0000
  O   O4        1.0  0.01104  0.69135  0.47250  1.0000
  O   O5        1.0  0.00568  0.01361  0.66394  1.0000
  O   O6        1.0  0.99432  0.98639  0.33606  1.0000
  O   O7        1.0  0.08159  0.03015  0.83286  1.0000
  O   O8        1.0  0.91841  0.96986  0.16714  1.0000
  O   O9        1.0  0.56794  0.93822  0.13770  1.0000
  O   O10       1.0  0.43206  0.06178  0.86230  1.0000
