data_image0
_chemical_formula_structural       Cd2H38C36N8O12
_chemical_formula_sum              "Cd2 H38 C36 N8 O12"
_cell_length_a       8.6266
_cell_length_b       11.6164
_cell_length_c       11.4993
_cell_angle_alpha    65.2155
_cell_angle_beta     69.6144
_cell_angle_gamma    79.0648

_space_group_name_H-M_alt    "P 1"
_space_group_IT_number       1

loop_
  _space_group_symop_operation_xyz
  'x, y, z'

loop_
  _atom_site_type_symbol
  _atom_site_label
  _atom_site_symmetry_multiplicity
  _atom_site_fract_x
  _atom_site_fract_y
  _atom_site_fract_z
  _atom_site_occupancy
  Cd  Cd1       1.0  0.19577  0.88475  0.34904  1.0000
  Cd  Cd2       1.0  0.80423  0.11525  0.65096  1.0000
  H   H1        1.0  0.50032  0.72055  0.93914  1.0000
  H   H2        1.0  0.49968  0.27945  0.06086  1.0000
  H   H3        1.0  0.88549  0.47009  0.68894  1.0000
  H   H4        1.0  0.11451  0.52991  0.31106  1.0000
  H   H5        1.0  0.67041  0.36175  0.89584  1.0000
  H   H6        1.0  0.32959  0.63825  0.10416  1.0000
  H   H7        1.0  0.94971  0.80300  0.22298  1.0000
  H   H8        1.0  0.05028  0.19700  0.77702  1.0000
  H   H9        1.0  0.78374  0.65407  0.44485  1.0000
  H   H10       1.0  0.21626  0.34593  0.55515  1.0000
  H   H11       1.0  0.40896  0.62771  0.29776  1.0000
  H   H12       1.0  0.59104  0.37229  0.70224  1.0000
  H   H13       1.0  0.01849  0.88189  0.85041  1.0000
  H   H14       1.0  0.98151  0.11811  0.14958  1.0000
  H   H15       1.0  0.85379  0.87851  0.99619  1.0000
  H   H16       1.0  0.14620  0.12149  0.00381  1.0000
  H   H17       1.0  0.87687  0.44792  0.17776  1.0000
  H   H18       1.0  0.12314  0.55208  0.82224  1.0000
  H   H19       1.0  0.70288  0.54901  0.13708  1.0000
  H   H20       1.0  0.29712  0.45098  0.86291  1.0000
  H   H21       1.0  0.44175  0.91660  0.01982  1.0000
  H   H22       1.0  0.55825  0.08341  0.98018  1.0000
  H   H23       1.0  0.54860  0.85426  0.44812  1.0000
  H   H24       1.0  0.45140  0.14574  0.55188  1.0000
  H   H25       1.0  0.30138  0.91430  0.83665  1.0000
  H   H26       1.0  0.69862  0.08571  0.16335  1.0000
  H   H27       1.0  0.87172  0.68610  0.94952  1.0000
  H   H28       1.0  0.12829  0.31390  0.05048  1.0000
  H   H29       1.0  0.07550  0.64494  0.96894  1.0000
  H   H30       1.0  0.92450  0.35507  0.03105  1.0000
  H   H31       1.0  0.62448  0.42057  0.37902  1.0000
  H   H32       1.0  0.37552  0.57943  0.62097  1.0000
  H   H33       1.0  0.80016  0.46266  0.39644  1.0000
  H   H34       1.0  0.19984  0.53734  0.60356  1.0000
  H   H35       1.0  0.85475  0.96769  0.44748  1.0000
  H   H36       1.0  0.14524  0.03231  0.55252  1.0000
  H   H37       1.0  0.95720  0.08796  0.36464  1.0000
  H   H38       1.0  0.04281  0.91204  0.63536  1.0000
  C   C1        1.0  0.81819  0.65575  0.69676  1.0000
  C   C2        1.0  0.18181  0.34425  0.30324  1.0000
  C   C3        1.0  0.56496  0.53165  0.93651  1.0000
  C   C4        1.0  0.43504  0.46835  0.06349  1.0000
  C   C5        1.0  0.96215  0.71594  0.57703  1.0000
  C   C6        1.0  0.03785  0.28406  0.42297  1.0000
  C   C7        1.0  0.71021  0.86663  0.72328  1.0000
  C   C8        1.0  0.28979  0.13336  0.27672  1.0000
  C   C9        1.0  0.58244  0.66297  0.88611  1.0000
  C   C10       1.0  0.41756  0.33703  0.11390  1.0000
  C   C11       1.0  0.70490  0.72536  0.76829  1.0000
  C   C12       1.0  0.29509  0.27464  0.23172  1.0000
  C   C13       1.0  0.79974  0.52504  0.74403  1.0000
  C   C14       1.0  0.20026  0.47496  0.25597  1.0000
  C   C15       1.0  0.67671  0.46400  0.86164  1.0000
  C   C16       1.0  0.32329  0.53600  0.13837  1.0000
  C   C17       1.0  0.06541  0.83381  0.14477  1.0000
  C   C18       1.0  0.93458  0.16619  0.85523  1.0000
  C   C19       1.0  0.67025  0.67805  0.41646  1.0000
  C   C20       1.0  0.32975  0.32195  0.58354  1.0000
  C   C21       1.0  0.47731  0.66391  0.33753  1.0000
  C   C22       1.0  0.52269  0.33609  0.66246  1.0000
  C   C23       1.0  0.97435  0.83360  0.95987  1.0000
  C   C24       1.0  0.02565  0.16641  0.04013  1.0000
  C   C25       1.0  0.79488  0.52988  0.19102  1.0000
  C   C26       1.0  0.20512  0.47012  0.80898  1.0000
  C   C27       1.0  0.31825  0.89316  0.03595  1.0000
  C   C28       1.0  0.68174  0.10684  0.96405  1.0000
  C   C29       1.0  0.55433  0.77759  0.41606  1.0000
  C   C30       1.0  0.44567  0.22241  0.58394  1.0000
  C   C31       1.0  0.25170  0.89176  0.94379  1.0000
  C   C32       1.0  0.74830  0.10824  0.05621  1.0000
  C   C33       1.0  0.95473  0.69392  0.99998  1.0000
  C   C34       1.0  0.04527  0.30608  0.00002  1.0000
  C   C35       1.0  0.70969  0.49652  0.34047  1.0000
  C   C36       1.0  0.29031  0.50348  0.65953  1.0000
  N   N1        1.0  0.43516  0.76742  0.36649  1.0000
  N   N2        1.0  0.56484  0.23258  0.63351  1.0000
  N   N3        1.0  0.61881  0.60686  0.36716  1.0000
  N   N4        1.0  0.38119  0.39314  0.63283  1.0000
  N   N5        1.0  0.20057  0.85666  0.16083  1.0000
  N   N6        1.0  0.79943  0.14334  0.83917  1.0000
  N   N7        1.0  0.09169  0.85379  0.01454  1.0000
  N   N8        1.0  0.90831  0.14621  0.98546  1.0000
  O   O1        1.0  0.88469  0.63953  0.14237  1.0000
  O   O2        1.0  0.11531  0.36047  0.85762  1.0000
  O   O3        1.0  0.99585  0.69127  0.47346  1.0000
  O   O4        1.0  0.00415  0.30873  0.52655  1.0000
  O   O5        1.0  0.04872  0.78862  0.58658  1.0000
  O   O6        1.0  0.95128  0.21138  0.41343  1.0000
  O   O7        1.0  0.71813  0.93859  0.60191  1.0000
  O   O8        1.0  0.28187  0.06141  0.39809  1.0000
  O   O9        1.0  0.70506  0.90794  0.81102  1.0000
  O   O10       1.0  0.29494  0.09206  0.18898  1.0000
  O   O11       1.0  0.94013  0.00793  0.35985  1.0000
  O   O12       1.0  0.05987  0.99208  0.64015  1.0000
