data_image0
_chemical_formula_structural       U3H10C4O14
_chemical_formula_sum              "U3 H10 C4 O14"
_cell_length_a       6.9741
_cell_length_b       7.26061
_cell_length_c       8.34046
_cell_angle_alpha    107.07
_cell_angle_beta     96.9125
_cell_angle_gamma    111.776

_space_group_name_H-M_alt    "P 1"
_space_group_IT_number       1

loop_
  _space_group_symop_operation_xyz
  'x, y, z'

loop_
  _atom_site_type_symbol
  _atom_site_label
  _atom_site_symmetry_multiplicity
  _atom_site_fract_x
  _atom_site_fract_y
  _atom_site_fract_z
  _atom_site_occupancy
  U   U1        1.0  0.99999  0.49998  0.99999  1.0000
  U   U2        1.0  0.46787  0.36060  0.15578  1.0000
  U   U3        1.0  0.53213  0.63939  0.84421  1.0000
  H   H1        1.0  0.06336  0.25471  0.50019  1.0000
  H   H2        1.0  0.93665  0.74529  0.49981  1.0000
  H   H3        1.0  0.91623  0.00825  0.32324  1.0000
  H   H4        1.0  0.08378  0.99176  0.67675  1.0000
  H   H5        1.0  0.77734  0.15209  0.42807  1.0000
  H   H6        1.0  0.22266  0.84790  0.57193  1.0000
  H   H7        1.0  0.41525  0.22847  0.46471  1.0000
  H   H8        1.0  0.58475  0.77154  0.53531  1.0000
  H   H9        1.0  0.31765  0.00636  0.29248  1.0000
  H   H10       1.0  0.68237  0.99365  0.70753  1.0000
  C   C1        1.0  0.95159  0.28025  0.26347  1.0000
  C   C2        1.0  0.04841  0.71976  0.73654  1.0000
  C   C3        1.0  0.92385  0.16715  0.38736  1.0000
  C   C4        1.0  0.07615  0.83285  0.61265  1.0000
  O   O1        1.0  0.13473  0.75861  0.18166  1.0000
  O   O2        1.0  0.86527  0.24139  0.81833  1.0000
  O   O3        1.0  0.57834  0.60984  0.34754  1.0000
  O   O4        1.0  0.42166  0.39017  0.65246  1.0000
  O   O5        1.0  0.35045  0.10270  0.98180  1.0000
  O   O6        1.0  0.64954  0.89731  0.01820  1.0000
  O   O7        1.0  0.11033  0.31153  0.19501  1.0000
  O   O8        1.0  0.88966  0.68846  0.80498  1.0000
  O   O9        1.0  0.82213  0.35587  0.22208  1.0000
  O   O10       1.0  0.17788  0.64416  0.77794  1.0000
  O   O11       1.0  0.31421  0.49548  0.99641  1.0000
  O   O12       1.0  0.68578  0.50451  0.00358  1.0000
  O   O13       1.0  0.42294  0.15973  0.34423  1.0000
  O   O14       1.0  0.57706  0.84027  0.65577  1.0000
