data_image0
_chemical_formula_structural       Ag4H20C60N16
_chemical_formula_sum              "Ag4 H20 C60 N16"
_cell_length_a       7.71605
_cell_length_b       11.7364
_cell_length_c       14.0589
_cell_angle_alpha    79.9919
_cell_angle_beta     75.6008
_cell_angle_gamma    88.2869

_space_group_name_H-M_alt    "P 1"
_space_group_IT_number       1

loop_
  _space_group_symop_operation_xyz
  'x, y, z'

loop_
  _atom_site_type_symbol
  _atom_site_label
  _atom_site_symmetry_multiplicity
  _atom_site_fract_x
  _atom_site_fract_y
  _atom_site_fract_z
  _atom_site_occupancy
  Ag  Ag1       1.0  1.00000  0.00001  0.00000  1.0000
  Ag  Ag2       1.0  0.49995  0.49993  0.99999  1.0000
  Ag  Ag3       1.0  0.49995  0.99999  0.49998  1.0000
  Ag  Ag4       1.0  0.99998  0.99987  0.50011  1.0000
  H   H1        1.0  0.30044  0.91973  0.72999  1.0000
  H   H2        1.0  0.69956  0.08030  0.27000  1.0000
  H   H3        1.0  0.02181  0.64085  0.05742  1.0000
  H   H4        1.0  0.97821  0.35915  0.94258  1.0000
  H   H5        1.0  0.16810  0.61322  0.19693  1.0000
  H   H6        1.0  0.83191  0.38679  0.80307  1.0000
  H   H7        1.0  0.45360  0.71682  0.18181  1.0000
  H   H8        1.0  0.54641  0.28319  0.81819  1.0000
  H   H9        1.0  0.59598  0.84798  0.02779  1.0000
  H   H10       1.0  0.40404  0.15203  0.97220  1.0000
  H   H11       1.0  0.30713  0.40196  0.78388  1.0000
  H   H12       1.0  0.69289  0.59804  0.21611  1.0000
  H   H13       1.0  0.13461  0.31374  0.47020  1.0000
  H   H14       1.0  0.86536  0.68625  0.52981  1.0000
  H   H15       1.0  0.14750  0.46798  0.32544  1.0000
  H   H16       1.0  0.85247  0.53201  0.67456  1.0000
  H   H17       1.0  0.24405  0.66870  0.32730  1.0000
  H   H18       1.0  0.75594  0.33129  0.67269  1.0000
  H   H19       1.0  0.33483  0.71605  0.47115  1.0000
  H   H20       1.0  0.66518  0.28395  0.52884  1.0000
  C   C1        1.0  0.43614  0.89380  0.85357  1.0000
  C   C2        1.0  0.56388  0.10621  0.14644  1.0000
  C   C3        1.0  0.30317  0.87733  0.80459  1.0000
  C   C4        1.0  0.69684  0.12268  0.19542  1.0000
  C   C5        1.0  0.17403  0.79619  0.86638  1.0000
  C   C6        1.0  0.82597  0.20381  0.13363  1.0000
  C   C7        1.0  0.22485  0.76212  0.96226  1.0000
  C   C8        1.0  0.77516  0.23787  0.03774  1.0000
  C   C9        1.0  0.14567  0.68737  0.04933  1.0000
  C   C10       1.0  0.85435  0.31263  0.95066  1.0000
  C   C11       1.0  0.22990  0.67178  0.12854  1.0000
  C   C12       1.0  0.77013  0.32823  0.87146  1.0000
  C   C13       1.0  0.38952  0.72944  0.11997  1.0000
  C   C14       1.0  0.61050  0.27057  0.88003  1.0000
  C   C15       1.0  0.47102  0.80475  0.03177  1.0000
  C   C16       1.0  0.52900  0.19525  0.96822  1.0000
  C   C17       1.0  0.38805  0.82103  0.95359  1.0000
  C   C18       1.0  0.61197  0.17898  0.04641  1.0000
  C   C19       1.0  0.58825  0.96712  0.81357  1.0000
  C   C20       1.0  0.41176  0.03290  0.18643  1.0000
  C   C21       1.0  0.72136  0.97839  0.86345  1.0000
  C   C22       1.0  0.27864  0.02162  0.13654  1.0000
  C   C23       1.0  0.61402  0.03337  0.71719  1.0000
  C   C24       1.0  0.38600  0.96663  0.28280  1.0000
  C   C25       1.0  0.02808  0.75240  0.84022  1.0000
  C   C26       1.0  0.97190  0.24761  0.15979  1.0000
  C   C27       1.0  0.90292  0.67306  0.90754  1.0000
  C   C28       1.0  0.09706  0.32696  0.09245  1.0000
  C   C29       1.0  0.99969  0.78572  0.74361  1.0000
  C   C30       1.0  0.00031  0.21434  0.25640  1.0000
  C   C31       1.0  0.33066  0.53981  0.65157  1.0000
  C   C32       1.0  0.66932  0.46018  0.34843  1.0000
  C   C33       1.0  0.29041  0.42900  0.70877  1.0000
  C   C34       1.0  0.70960  0.57100  0.29122  1.0000
  C   C35       1.0  0.23144  0.35696  0.65235  1.0000
  C   C36       1.0  0.76857  0.64303  0.34765  1.0000
  C   C37       1.0  0.22909  0.42678  0.55448  1.0000
  C   C38       1.0  0.77090  0.57322  0.44552  1.0000
  C   C39       1.0  0.18015  0.39996  0.47231  1.0000
  C   C40       1.0  0.81982  0.60003  0.52769  1.0000
  C   C41       1.0  0.18755  0.48832  0.38978  1.0000
  C   C42       1.0  0.81242  0.51167  0.61022  1.0000
  C   C43       1.0  0.24253  0.59999  0.39052  1.0000
  C   C44       1.0  0.75745  0.40000  0.60948  1.0000
  C   C45       1.0  0.29383  0.62756  0.47316  1.0000
  C   C46       1.0  0.70616  0.37243  0.52684  1.0000
  C   C47       1.0  0.28769  0.54054  0.55456  1.0000
  C   C48       1.0  0.71230  0.45946  0.44544  1.0000
  C   C49       1.0  0.40831  0.63049  0.68196  1.0000
  C   C50       1.0  0.59166  0.36951  0.31805  1.0000
  C   C51       1.0  0.45266  0.73942  0.62298  1.0000
  C   C52       1.0  0.54729  0.26058  0.37703  1.0000
  C   C53       1.0  0.45299  0.60807  0.77465  1.0000
  C   C54       1.0  0.54701  0.39192  0.22534  1.0000
  C   C55       1.0  0.18687  0.23894  0.68586  1.0000
  C   C56       1.0  0.81316  0.76105  0.31413  1.0000
  C   C57       1.0  0.13167  0.16661  0.62928  1.0000
  C   C58       1.0  0.86835  0.83338  0.37074  1.0000
  C   C59       1.0  0.20208  0.18611  0.78153  1.0000
  C   C60       1.0  0.79795  0.81390  0.21847  1.0000
  N   N1        1.0  0.83557  0.98800  0.90301  1.0000
  N   N2        1.0  0.16444  0.01203  0.09698  1.0000
  N   N3        1.0  0.63146  0.08649  0.63646  1.0000
  N   N4        1.0  0.36859  0.91349  0.36353  1.0000
  N   N5        1.0  0.80011  0.60699  0.96433  1.0000
  N   N6        1.0  0.19986  0.39303  0.03566  1.0000
  N   N7        1.0  0.97774  0.81154  0.66306  1.0000
  N   N8        1.0  0.02231  0.18857  0.33694  1.0000
  N   N9        1.0  0.49089  0.83063  0.57416  1.0000
  N   N10       1.0  0.50905  0.16937  0.42584  1.0000
  N   N11       1.0  0.48699  0.58017  0.85184  1.0000
  N   N12       1.0  0.51304  0.41982  0.14815  1.0000
  N   N13       1.0  0.08631  0.10322  0.58425  1.0000
  N   N14       1.0  0.91370  0.89677  0.41576  1.0000
  N   N15       1.0  0.21666  0.14420  0.86103  1.0000
  N   N16       1.0  0.78335  0.85582  0.13898  1.0000
