data_image0
_chemical_formula_structural       Mn2H36C36N8O8
_chemical_formula_sum              "Mn2 H36 C36 N8 O8"
_cell_length_a       9.32709
_cell_length_b       9.72035
_cell_length_c       10.9033
_cell_angle_alpha    104.543
_cell_angle_beta     99.5982
_cell_angle_gamma    113.925

_space_group_name_H-M_alt    "P 1"
_space_group_IT_number       1

loop_
  _space_group_symop_operation_xyz
  'x, y, z'

loop_
  _atom_site_type_symbol
  _atom_site_label
  _atom_site_symmetry_multiplicity
  _atom_site_fract_x
  _atom_site_fract_y
  _atom_site_fract_z
  _atom_site_occupancy
  Mn  Mn1       1.0  0.72601  0.21597  0.97956  1.0000
  Mn  Mn2       1.0  0.27709  0.78393  0.02066  1.0000
  H   H1        1.0  0.59651  0.87148  0.73009  1.0000
  H   H2        1.0  0.41064  0.13083  0.26111  1.0000
  H   H3        1.0  0.08671  0.20820  0.95543  1.0000
  H   H4        1.0  0.92259  0.78965  0.03131  1.0000
  H   H5        1.0  0.07979  0.92674  0.80371  1.0000
  H   H6        1.0  0.92160  0.05938  0.19384  1.0000
  H   H7        1.0  0.62779  0.62433  0.63949  1.0000
  H   H8        1.0  0.37319  0.36922  0.35835  1.0000
  H   H9        1.0  0.82512  0.63619  0.68267  1.0000
  H   H10       1.0  0.17528  0.35472  0.31107  1.0000
  H   H11       1.0  0.89669  0.75990  0.50985  1.0000
  H   H12       1.0  0.10131  0.23540  0.48598  1.0000
  H   H13       1.0  0.73117  0.56367  0.44410  1.0000
  H   H14       1.0  0.26276  0.43343  0.54857  1.0000
  H   H15       1.0  0.69694  0.87390  0.49525  1.0000
  H   H16       1.0  0.30720  0.13046  0.51449  1.0000
  H   H17       1.0  0.53031  0.67784  0.43051  1.0000
  H   H18       1.0  0.47005  0.32802  0.57590  1.0000
  H   H19       1.0  0.59112  0.78747  0.25244  1.0000
  H   H20       1.0  0.40114  0.22066  0.75518  1.0000
  H   H21       1.0  0.79703  0.81931  0.30022  1.0000
  H   H22       1.0  0.19743  0.19259  0.70292  1.0000
  H   H23       1.0  0.35585  0.48418  0.15220  1.0000
  H   H24       1.0  0.64059  0.52672  0.84762  1.0000
  H   H25       1.0  0.37336  0.20768  0.01387  1.0000
  H   H26       1.0  0.62685  0.80167  0.99406  1.0000
  H   H27       1.0  0.85355  0.58901  0.21083  1.0000
  H   H28       1.0  0.14426  0.42053  0.80136  1.0000
  H   H29       1.0  0.11120  0.65673  0.72793  1.0000
  H   H30       1.0  0.88812  0.32898  0.27195  1.0000
  H   H31       1.0  0.06872  0.53752  0.30885  1.0000
  H   H32       1.0  0.92259  0.45445  0.68969  1.0000
  H   H33       1.0  0.29991  0.79857  0.35615  1.0000
  H   H34       1.0  0.68995  0.19512  0.64277  1.0000
  H   H35       1.0  0.44747  0.99239  0.59324  1.0000
  H   H36       1.0  0.54280  0.00022  0.40657  1.0000
  C   C1        1.0  0.72923  0.92877  0.77107  1.0000
  C   C2        1.0  0.27801  0.07093  0.22044  1.0000
  C   C3        1.0  0.98419  0.09840  0.88318  1.0000
  C   C4        1.0  0.02379  0.89810  0.10604  1.0000
  C   C5        1.0  0.98333  0.96113  0.80808  1.0000
  C   C6        1.0  0.02103  0.02969  0.18769  1.0000
  C   C7        1.0  0.75642  0.69200  0.64252  1.0000
  C   C8        1.0  0.24423  0.30071  0.35415  1.0000
  C   C9        1.0  0.76723  0.68871  0.50377  1.0000
  C   C10       1.0  0.23080  0.30817  0.49313  1.0000
  C   C11       1.0  0.65987  0.74845  0.43618  1.0000
  C   C12       1.0  0.34019  0.25633  0.56878  1.0000
  C   C13       1.0  0.67015  0.74336  0.29678  1.0000
  C   C14       1.0  0.32561  0.26647  0.70814  1.0000
  C   C15       1.0  0.45895  0.46064  0.14480  1.0000
  C   C16       1.0  0.53789  0.54978  0.85828  1.0000
  C   C17       1.0  0.46990  0.32757  0.07567  1.0000
  C   C18       1.0  0.52950  0.68195  0.93276  1.0000
  C   C19       1.0  0.72045  0.51930  0.17462  1.0000
  C   C20       1.0  0.27721  0.49012  0.83585  1.0000
  C   C21       1.0  0.95676  0.51112  0.93955  1.0000
  C   C22       1.0  0.05586  0.50488  0.06137  1.0000
  C   C23       1.0  0.37602  0.94819  0.81327  1.0000
  C   C24       1.0  0.62335  0.04230  0.18522  1.0000
  C   C25       1.0  0.28708  0.83388  0.67379  1.0000
  C   C26       1.0  0.70882  0.15373  0.32568  1.0000
  C   C27       1.0  0.15076  0.68449  0.64489  1.0000
  C   C28       1.0  0.84645  0.30264  0.35470  1.0000
  C   C29       1.0  0.06851  0.57421  0.51413  1.0000
  C   C30       1.0  0.92599  0.41501  0.48498  1.0000
  C   C31       1.0  0.12616  0.61954  0.41162  1.0000
  C   C32       1.0  0.86626  0.37167  0.58725  1.0000
  C   C33       1.0  0.26025  0.76888  0.43897  1.0000
  C   C34       1.0  0.73113  0.22299  0.55996  1.0000
  C   C35       1.0  0.34142  0.87610  0.56936  1.0000
  C   C36       1.0  0.65082  0.11485  0.42990  1.0000
  N   N1        1.0  0.82486  0.07691  0.85948  1.0000
  N   N2        1.0  0.18514  0.92529  0.12653  1.0000
  N   N3        1.0  0.82016  0.85432  0.73781  1.0000
  N   N4        1.0  0.18320  0.13818  0.25941  1.0000
  N   N5        1.0  0.61929  0.58123  0.20683  1.0000
  N   N6        1.0  0.37737  0.42982  0.79720  1.0000
  N   N7        1.0  0.63377  0.36570  0.09481  1.0000
  N   N8        1.0  0.36585  0.64314  0.91901  1.0000
  O   O1        1.0  0.80873  0.40512  0.88168  1.0000
  O   O2        1.0  0.20356  0.62062  0.11541  1.0000
  O   O3        1.0  0.03594  0.63029  0.90383  1.0000
  O   O4        1.0  0.98959  0.39009  0.10269  1.0000
  O   O5        1.0  0.49894  0.08271  0.83074  1.0000
  O   O6        1.0  0.48254  0.92166  0.16399  1.0000
  O   O7        1.0  0.32610  0.91430  0.90945  1.0000
  O   O8        1.0  0.69068  0.06853  0.09483  1.0000
