data_image0
_chemical_formula_structural       Na4H16C12S4O22
_chemical_formula_sum              "Na4 H16 C12 S4 O22"
_cell_length_a       7.00279
_cell_length_b       9.22568
_cell_length_c       10.476
_cell_angle_alpha    68.4648
_cell_angle_beta     76.8929
_cell_angle_gamma    67.8146

_space_group_name_H-M_alt    "P 1"
_space_group_IT_number       1

loop_
  _space_group_symop_operation_xyz
  'x, y, z'

loop_
  _atom_site_type_symbol
  _atom_site_label
  _atom_site_symmetry_multiplicity
  _atom_site_fract_x
  _atom_site_fract_y
  _atom_site_fract_z
  _atom_site_occupancy
  Na  Na1       1.0  0.78259  0.04841  0.32677  1.0000
  Na  Na2       1.0  0.21741  0.95159  0.67323  1.0000
  Na  Na3       1.0  0.60429  0.77853  0.23285  1.0000
  Na  Na4       1.0  0.39571  0.22147  0.76715  1.0000
  H   H1        1.0  0.14001  0.43826  0.34157  1.0000
  H   H2        1.0  0.85999  0.56174  0.65843  1.0000
  H   H3        1.0  0.23822  0.10368  0.07802  1.0000
  H   H4        1.0  0.76177  0.89632  0.92198  1.0000
  H   H5        1.0  0.28502  0.58323  0.74738  1.0000
  H   H6        1.0  0.71498  0.41677  0.25262  1.0000
  H   H7        1.0  0.25998  0.81930  0.95005  1.0000
  H   H8        1.0  0.74003  0.18070  0.04995  1.0000
  H   H9        1.0  0.58402  0.30474  0.46014  1.0000
  H   H10       1.0  0.41597  0.69526  0.53986  1.0000
  H   H11       1.0  0.82699  0.24790  0.46280  1.0000
  H   H12       1.0  0.17301  0.75211  0.53719  1.0000
  H   H13       1.0  0.71308  0.52298  0.53212  1.0000
  H   H14       1.0  0.28693  0.47702  0.46788  1.0000
  H   H15       1.0  0.72368  0.70377  0.49165  1.0000
  H   H16       1.0  0.27632  0.29623  0.50835  1.0000
  C   C1        1.0  0.18940  0.59388  0.13648  1.0000
  C   C2        1.0  0.81060  0.40612  0.86352  1.0000
  C   C3        1.0  0.18048  0.44622  0.23378  1.0000
  C   C4        1.0  0.81952  0.55378  0.76622  1.0000
  C   C5        1.0  0.22088  0.30847  0.19478  1.0000
  C   C6        1.0  0.77912  0.69153  0.80522  1.0000
  C   C7        1.0  0.25354  0.32109  0.05421  1.0000
  C   C8        1.0  0.74646  0.67891  0.94579  1.0000
  C   C9        1.0  0.26303  0.47100  0.95361  1.0000
  C   C10       1.0  0.73696  0.52900  0.04639  1.0000
  C   C11       1.0  0.23737  0.60698  0.99538  1.0000
  C   C12       1.0  0.76263  0.39302  0.00462  1.0000
  S   S1        1.0  0.14678  0.75776  0.20038  1.0000
  S   S2        1.0  0.85322  0.24224  0.79962  1.0000
  S   S3        1.0  0.24983  0.11750  0.32467  1.0000
  S   S4        1.0  0.75017  0.88251  0.67533  1.0000
  O   O1        1.0  0.28063  0.19467  0.00709  1.0000
  O   O2        1.0  0.71936  0.80533  0.99291  1.0000
  O   O3        1.0  0.30338  0.47232  0.82031  1.0000
  O   O4        1.0  0.69662  0.52767  0.17969  1.0000
  O   O5        1.0  0.25871  0.74728  0.89797  1.0000
  O   O6        1.0  0.74130  0.25272  0.10203  1.0000
  O   O7        1.0  0.92177  0.84089  0.21679  1.0000
  O   O8        1.0  0.07823  0.15911  0.78321  1.0000
  O   O9        1.0  0.23914  0.68219  0.33231  1.0000
  O   O10       1.0  0.76086  0.31782  0.66768  1.0000
  O   O11       1.0  0.25750  0.86487  0.09292  1.0000
  O   O12       1.0  0.74250  0.13513  0.90707  1.0000
  O   O13       1.0  0.18441  0.15632  0.45611  1.0000
  O   O14       1.0  0.81559  0.84368  0.54389  1.0000
  O   O15       1.0  0.47104  0.01840  0.31150  1.0000
  O   O16       1.0  0.52896  0.98160  0.68850  1.0000
  O   O17       1.0  0.11871  0.04295  0.29756  1.0000
  O   O18       1.0  0.88128  0.95705  0.70244  1.0000
  O   O19       1.0  0.72049  0.27219  0.40450  1.0000
  O   O20       1.0  0.27952  0.72780  0.59550  1.0000
  O   O21       1.0  0.66340  0.63648  0.46871  1.0000
  O   O22       1.0  0.33661  0.36352  0.53129  1.0000
