data_image0
_chemical_formula_structural       Cu6H30C34S2I6N6
_chemical_formula_sum              "Cu6 H30 C34 S2 I6 N6"
_cell_length_a       7.26771
_cell_length_b       10.1198
_cell_length_c       14.8557
_cell_angle_alpha    82.0333
_cell_angle_beta     88.4555
_cell_angle_gamma    77.7407

_space_group_name_H-M_alt    "P 1"
_space_group_IT_number       1

loop_
  _space_group_symop_operation_xyz
  'x, y, z'

loop_
  _atom_site_type_symbol
  _atom_site_label
  _atom_site_symmetry_multiplicity
  _atom_site_fract_x
  _atom_site_fract_y
  _atom_site_fract_z
  _atom_site_occupancy
  Cu  Cu1       1.0  0.59557  0.88930  0.97485  1.0000
  Cu  Cu2       1.0  0.40444  0.11071  0.02515  1.0000
  Cu  Cu3       1.0  0.10348  0.36907  0.44164  1.0000
  Cu  Cu4       1.0  0.89653  0.63093  0.55836  1.0000
  Cu  Cu5       1.0  0.46967  0.41312  0.56492  1.0000
  Cu  Cu6       1.0  0.53034  0.58688  0.43508  1.0000
  H   H1        1.0  0.51105  0.73848  0.13468  1.0000
  H   H2        1.0  0.48892  0.26154  0.86531  1.0000
  H   H3        1.0  0.58423  0.50420  0.22081  1.0000
  H   H4        1.0  0.41575  0.49581  0.77918  1.0000
  H   H5        1.0  0.76668  0.31198  0.14171  1.0000
  H   H6        1.0  0.23330  0.68803  0.85829  1.0000
  H   H7        1.0  0.92652  0.23609  0.00496  1.0000
  H   H8        1.0  0.07347  0.76391  0.99505  1.0000
  H   H9        1.0  0.03291  0.29212  0.84583  1.0000
  H   H10       1.0  0.96709  0.70787  0.15418  1.0000
  H   H11       1.0  0.92038  0.52388  0.76286  1.0000
  H   H12       1.0  0.07962  0.47612  0.23713  1.0000
  H   H13       1.0  0.54698  0.77350  0.81866  1.0000
  H   H14       1.0  0.45302  0.22650  0.18134  1.0000
  H   H15       1.0  0.74529  0.72829  0.74596  1.0000
  H   H16       1.0  0.25470  0.27172  0.25404  1.0000
  H   H17       1.0  0.84708  0.14417  0.83876  1.0000
  H   H18       1.0  0.15293  0.85583  0.16123  1.0000
  H   H19       1.0  0.73734  0.34691  0.72269  1.0000
  H   H20       1.0  0.26267  0.65309  0.27731  1.0000
  H   H21       1.0  0.48794  0.12260  0.56823  1.0000
  H   H22       1.0  0.51204  0.87740  0.43177  1.0000
  H   H23       1.0  0.58485  0.91053  0.67621  1.0000
  H   H24       1.0  0.41514  0.08947  0.32379  1.0000
  H   H25       1.0  0.73782  0.02090  0.40725  1.0000
  H   H26       1.0  0.26219  0.97908  0.59276  1.0000
  H   H27       1.0  0.96429  0.91890  0.38870  1.0000
  H   H28       1.0  0.03572  0.08109  0.61130  1.0000
  H   H29       1.0  0.83961  0.03107  0.29638  1.0000
  H   H30       1.0  0.16041  0.96892  0.70362  1.0000
  C   C1        1.0  0.72201  0.57998  0.96853  1.0000
  C   C2        1.0  0.27797  0.42003  0.03146  1.0000
  C   C3        1.0  0.58264  0.65269  0.10114  1.0000
  C   C4        1.0  0.41734  0.34731  0.89885  1.0000
  C   C5        1.0  0.62581  0.52074  0.14980  1.0000
  C   C6        1.0  0.37418  0.47927  0.85020  1.0000
  C   C7        1.0  0.72541  0.41600  0.10664  1.0000
  C   C8        1.0  0.27459  0.58401  0.89336  1.0000
  C   C9        1.0  0.77752  0.44314  0.01465  1.0000
  C   C10       1.0  0.22247  0.55686  0.98535  1.0000
  C   C11       1.0  0.88657  0.33938  0.96873  1.0000
  C   C12       1.0  0.11344  0.66063  0.03127  1.0000
  C   C13       1.0  0.94163  0.36963  0.88033  1.0000
  C   C14       1.0  0.05836  0.63037  0.11967  1.0000
  C   C15       1.0  0.88037  0.50218  0.83387  1.0000
  C   C16       1.0  0.11964  0.49782  0.16613  1.0000
  C   C17       1.0  0.76948  0.60603  0.87479  1.0000
  C   C18       1.0  0.23053  0.39397  0.12521  1.0000
  C   C19       1.0  0.70111  0.73945  0.81614  1.0000
  C   C20       1.0  0.29889  0.26055  0.18385  1.0000
  C   C21       1.0  0.72484  0.00979  0.76800  1.0000
  C   C22       1.0  0.27516  0.99021  0.23200  1.0000
  C   C23       1.0  0.76849  0.13514  0.77935  1.0000
  C   C24       1.0  0.23150  0.86485  0.22066  1.0000
  C   C25       1.0  0.70772  0.24791  0.71497  1.0000
  C   C26       1.0  0.29230  0.75208  0.28503  1.0000
  C   C27       1.0  0.56841  0.12235  0.62934  1.0000
  C   C28       1.0  0.43159  0.87765  0.37067  1.0000
  C   C29       1.0  0.62242  0.00415  0.69032  1.0000
  C   C30       1.0  0.37755  0.99586  0.30969  1.0000
  C   C31       1.0  0.95315  0.12837  0.39123  1.0000
  C   C32       1.0  0.04685  0.87160  0.60877  1.0000
  C   C33       1.0  0.87031  0.01891  0.36965  1.0000
  C   C34       1.0  0.12970  0.98107  0.63036  1.0000
  S   S1        1.0  0.80260  0.87278  0.85265  1.0000
  S   S2        1.0  0.19739  0.12721  0.14734  1.0000
  I   I1        1.0  0.11329  0.39093  0.61826  1.0000
  I   I2        1.0  0.88673  0.60908  0.38174  1.0000
  I   I3        1.0  0.73572  0.00110  0.09880  1.0000
  I   I4        1.0  0.26427  0.99889  0.90120  1.0000
  I   I5        1.0  0.46386  0.36067  0.39430  1.0000
  I   I6        1.0  0.53616  0.63933  0.60569  1.0000
  N   N1        1.0  0.62806  0.68352  0.01426  1.0000
  N   N2        1.0  0.37194  0.31648  0.98574  1.0000
  N   N3        1.0  0.60671  0.24375  0.64069  1.0000
  N   N4        1.0  0.39329  0.75625  0.35931  1.0000
  N   N5        1.0  0.01732  0.21741  0.40990  1.0000
  N   N6        1.0  0.98270  0.78258  0.59011  1.0000
