data_image0
_chemical_formula_structural       Zn2H38C38N4O10
_chemical_formula_sum              "Zn2 H38 C38 N4 O10"
_cell_length_a       9.23682
_cell_length_b       10.3405
_cell_length_c       11.518
_cell_angle_alpha    90.7831
_cell_angle_beta     113.657
_cell_angle_gamma    101.026

_space_group_name_H-M_alt    "P 1"
_space_group_IT_number       1

loop_
  _space_group_symop_operation_xyz
  'x, y, z'

loop_
  _atom_site_type_symbol
  _atom_site_label
  _atom_site_symmetry_multiplicity
  _atom_site_fract_x
  _atom_site_fract_y
  _atom_site_fract_z
  _atom_site_occupancy
  Zn  Zn1       1.0  0.30222  0.46028  0.39440  1.0000
  Zn  Zn2       1.0  0.69777  0.53972  0.60560  1.0000
  H   H1        1.0  0.51156  0.21129  0.21442  1.0000
  H   H2        1.0  0.48843  0.78871  0.78558  1.0000
  H   H3        1.0  0.98862  0.52609  0.37768  1.0000
  H   H4        1.0  0.01138  0.47393  0.62232  1.0000
  H   H5        1.0  0.70433  0.40336  0.30680  1.0000
  H   H6        1.0  0.29567  0.59664  0.69320  1.0000
  H   H7        1.0  0.84624  0.06041  0.20124  1.0000
  H   H8        1.0  0.15376  0.93960  0.79876  1.0000
  H   H9        1.0  0.12776  0.19795  0.27930  1.0000
  H   H10       1.0  0.87224  0.80205  0.72070  1.0000
  H   H11       1.0  0.32517  0.04004  0.21133  1.0000
  H   H12       1.0  0.67483  0.95995  0.78867  1.0000
  H   H13       1.0  0.27982  0.03063  0.04790  1.0000
  H   H14       1.0  0.72019  0.96937  0.95210  1.0000
  H   H15       1.0  0.34923  0.79802  0.21097  1.0000
  H   H16       1.0  0.65077  0.20197  0.78904  1.0000
  H   H17       1.0  0.29105  0.79113  0.04570  1.0000
  H   H18       1.0  0.70895  0.20887  0.95430  1.0000
  H   H19       1.0  0.08739  0.86608  0.18130  1.0000
  H   H20       1.0  0.91261  0.13392  0.81870  1.0000
  H   H21       1.0  0.02431  0.84287  0.01470  1.0000
  H   H22       1.0  0.97570  0.15713  0.98530  1.0000
  H   H23       1.0  0.10887  0.62949  0.19872  1.0000
  H   H24       1.0  0.89114  0.37051  0.80129  1.0000
  H   H25       1.0  0.91041  0.64669  0.10190  1.0000
  H   H26       1.0  0.08959  0.35331  0.89811  1.0000
  H   H27       1.0  0.15595  0.58599  0.00287  1.0000
  H   H28       1.0  0.84405  0.41401  0.99713  1.0000
  H   H29       1.0  0.95869  0.60540  0.90702  1.0000
  H   H30       1.0  0.04131  0.39460  0.09298  1.0000
  H   H31       1.0  0.52512  0.66709  0.16838  1.0000
  H   H32       1.0  0.47488  0.33291  0.83162  1.0000
  H   H33       1.0  0.37832  0.26316  0.99787  1.0000
  H   H34       1.0  0.62168  0.73684  0.00213  1.0000
  H   H35       1.0  0.73597  0.90640  0.51821  1.0000
  H   H36       1.0  0.26403  0.09359  0.48179  1.0000
  H   H37       1.0  0.24176  0.84722  0.47063  1.0000
  H   H38       1.0  0.75825  0.15278  0.52937  1.0000
  C   C1        1.0  0.95237  0.42245  0.33903  1.0000
  C   C2        1.0  0.04762  0.57756  0.66097  1.0000
  C   C3        1.0  0.79404  0.35419  0.29813  1.0000
  C   C4        1.0  0.20595  0.64581  0.70186  1.0000
  C   C5        1.0  0.75025  0.22023  0.24755  1.0000
  C   C6        1.0  0.24975  0.77978  0.75245  1.0000
  C   C7        1.0  0.87371  0.16257  0.24058  1.0000
  C   C8        1.0  0.12629  0.83744  0.75942  1.0000
  C   C9        1.0  0.02954  0.23834  0.28461  1.0000
  C   C10       1.0  0.97046  0.76167  0.71539  1.0000
  C   C11       1.0  0.52297  0.02283  0.16414  1.0000
  C   C12       1.0  0.47704  0.97716  0.83587  1.0000
  C   C13       1.0  0.34451  0.98781  0.13658  1.0000
  C   C14       1.0  0.65550  0.01219  0.86342  1.0000
  C   C15       1.0  0.27687  0.83988  0.12461  1.0000
  C   C16       1.0  0.72313  0.16011  0.87539  1.0000
  C   C17       1.0  0.09964  0.80878  0.10540  1.0000
  C   C18       1.0  0.90037  0.19122  0.89460  1.0000
  C   C19       1.0  0.03424  0.66149  0.10679  1.0000
  C   C20       1.0  0.96576  0.33851  0.89321  1.0000
  C   C21       1.0  0.03279  0.57317  0.99872  1.0000
  C   C22       1.0  0.96721  0.42683  0.00129  1.0000
  C   C23       1.0  0.38957  0.41837  0.19506  1.0000
  C   C24       1.0  0.61042  0.58163  0.80493  1.0000
  C   C25       1.0  0.44601  0.46070  0.09393  1.0000
  C   C26       1.0  0.55398  0.53930  0.90606  1.0000
  C   C27       1.0  0.51435  0.59431  0.09459  1.0000
  C   C28       1.0  0.48565  0.40569  0.90540  1.0000
  C   C29       1.0  0.43206  0.36677  0.99894  1.0000
  C   C30       1.0  0.56793  0.63323  0.00105  1.0000
  C   C31       1.0  0.47769  0.71712  0.49121  1.0000
  C   C32       1.0  0.52231  0.28287  0.50878  1.0000
  C   C33       1.0  0.48803  0.86293  0.49467  1.0000
  C   C34       1.0  0.51197  0.13707  0.50532  1.0000
  C   C35       1.0  0.63376  0.94874  0.51091  1.0000
  C   C36       1.0  0.36623  0.05126  0.48909  1.0000
  C   C37       1.0  0.35414  0.91499  0.48346  1.0000
  C   C38       1.0  0.64586  0.08501  0.51653  1.0000
  N   N1        1.0  0.07057  0.36609  0.33417  1.0000
  N   N2        1.0  0.92942  0.63392  0.66583  1.0000
  N   N3        1.0  0.59174  0.15502  0.20937  1.0000
  N   N4        1.0  0.40826  0.84498  0.79063  1.0000
  O   O1        1.0  0.59910  0.94297  0.14909  1.0000
  O   O2        1.0  0.40091  0.05703  0.85093  1.0000
  O   O3        1.0  0.36643  0.51189  0.25663  1.0000
  O   O4        1.0  0.63357  0.48810  0.74337  1.0000
  O   O5        1.0  0.36897  0.29856  0.21732  1.0000
  O   O6        1.0  0.63103  0.70144  0.78268  1.0000
  O   O7        1.0  0.34399  0.64139  0.47869  1.0000
  O   O8        1.0  0.65600  0.35861  0.52131  1.0000
  O   O9        1.0  0.60320  0.67675  0.49978  1.0000
  O   O10       1.0  0.39680  0.32325  0.50021  1.0000
