data_image0
_chemical_formula_structural       Cd2H8C6S2N8O6
_chemical_formula_sum              "Cd2 H8 C6 S2 N8 O6"
_cell_length_a       7.04786
_cell_length_b       7.46971
_cell_length_c       8.17777
_cell_angle_alpha    108.239
_cell_angle_beta     115.505
_cell_angle_gamma    90.0038

_space_group_name_H-M_alt    "P 1"
_space_group_IT_number       1

loop_
  _space_group_symop_operation_xyz
  'x, y, z'

loop_
  _atom_site_type_symbol
  _atom_site_label
  _atom_site_symmetry_multiplicity
  _atom_site_fract_x
  _atom_site_fract_y
  _atom_site_fract_z
  _atom_site_occupancy
  Cd  Cd1       1.0  0.95706  0.17278  0.18281  1.0000
  Cd  Cd2       1.0  0.22582  0.67274  0.18285  1.0000
  H   H1        1.0  0.76188  0.46201  0.29730  1.0000
  H   H2        1.0  0.53542  0.96206  0.29724  1.0000
  H   H3        1.0  0.99782  0.53242  0.45618  1.0000
  H   H4        1.0  0.45819  0.03240  0.45612  1.0000
  H   H5        1.0  0.08319  0.18635  0.62900  1.0000
  H   H6        1.0  0.54595  0.68613  0.62903  1.0000
  H   H7        1.0  0.92714  0.01720  0.65158  1.0000
  H   H8        1.0  0.72433  0.51680  0.65129  1.0000
  C   C1        1.0  0.04639  0.89734  0.44536  1.0000
  C   C2        1.0  0.39883  0.39727  0.44544  1.0000
  C   C3        1.0  0.07065  0.04254  0.63530  1.0000
  C   C4        1.0  0.56467  0.54231  0.63524  1.0000
  C   C5        1.0  0.25892  0.97888  0.95052  1.0000
  C   C6        1.0  0.69176  0.47883  0.95054  1.0000
  S   S1        1.0  0.04201  0.88134  0.95530  1.0000
  S   S2        1.0  0.91340  0.38135  0.95525  1.0000
  N   N1        1.0  0.25317  0.03411  0.80466  1.0000
  N   N2        1.0  0.55160  0.53396  0.80471  1.0000
  N   N3        1.0  0.45321  0.08766  0.83925  1.0000
  N   N4        1.0  0.38624  0.58755  0.83946  1.0000
  N   N5        1.0  0.57630  0.06872  0.00370  1.0000
  N   N6        1.0  0.42766  0.56864  0.00396  1.0000
  N   N7        1.0  0.46492  0.00467  0.07790  1.0000
  N   N8        1.0  0.61321  0.50461  0.07804  1.0000
  O   O1        1.0  0.92043  0.92538  0.29342  1.0000
  O   O2        1.0  0.37267  0.42529  0.29338  1.0000
  O   O3        1.0  0.15162  0.75841  0.45121  1.0000
  O   O4        1.0  0.29947  0.25848  0.45148  1.0000
  O   O5        1.0  0.88174  0.42452  0.39744  1.0000
  O   O6        1.0  0.51546  0.92450  0.39728  1.0000
