data_image0
_chemical_formula_structural       V4Cu2P4H28C24N4O20
_chemical_formula_sum              "V4 Cu2 P4 H28 C24 N4 O20"
_cell_length_a       9.41654
_cell_length_b       9.74422
_cell_length_c       12.0551
_cell_angle_alpha    106.224
_cell_angle_beta     105.152
_cell_angle_gamma    108.633

_space_group_name_H-M_alt    "P 1"
_space_group_IT_number       1

loop_
  _space_group_symop_operation_xyz
  'x, y, z'

loop_
  _atom_site_type_symbol
  _atom_site_label
  _atom_site_symmetry_multiplicity
  _atom_site_fract_x
  _atom_site_fract_y
  _atom_site_fract_z
  _atom_site_occupancy
  V   V1        1.0  0.21312  0.14340  0.88555  1.0000
  V   V2        1.0  0.82775  0.25815  0.11463  1.0000
  V   V3        1.0  0.01393  0.05042  0.04959  1.0000
  V   V4        1.0  0.46454  0.00120  0.95071  1.0000
  Cu  Cu1       1.0  0.90592  0.22283  0.70608  1.0000
  Cu  Cu2       1.0  0.69966  0.51672  0.29393  1.0000
  P   P1        1.0  0.70227  0.99764  0.80512  1.0000
  P   P2        1.0  0.39726  0.19286  0.19507  1.0000
  P   P3        1.0  0.08446  0.41085  0.00462  1.0000
  P   P4        1.0  0.57979  0.40628  0.99536  1.0000
  H   H1        1.0  0.22190  0.52416  0.82062  1.0000
  H   H2        1.0  0.90076  0.70277  0.17913  1.0000
  H   H3        1.0  0.41740  0.66131  0.73908  1.0000
  H   H4        1.0  0.17769  0.92147  0.26036  1.0000
  H   H5        1.0  0.36040  0.53908  0.50780  1.0000
  H   H6        1.0  0.35208  0.03104  0.49162  1.0000
  H   H7        1.0  0.11323  0.28918  0.37118  1.0000
  H   H8        1.0  0.24184  0.91804  0.62851  1.0000
  H   H9        1.0  0.91388  0.06529  0.27585  1.0000
  H   H10       1.0  0.13771  0.78968  0.72422  1.0000
  H   H11       1.0  0.67587  0.80430  0.18025  1.0000
  H   H12       1.0  0.99531  0.62413  0.81981  1.0000
  H   H13       1.0  0.52524  0.72247  0.31167  1.0000
  H   H14       1.0  0.71358  0.41047  0.68822  1.0000
  H   H15       1.0  0.61362  0.91618  0.53267  1.0000
  H   H16       1.0  0.58099  0.38330  0.46728  1.0000
  H   H17       1.0  0.21315  0.69287  0.06887  1.0000
  H   H18       1.0  0.64430  0.62420  0.93132  1.0000
  H   H19       1.0  0.35174  0.60433  0.05882  1.0000
  H   H20       1.0  0.79293  0.54576  0.94124  1.0000
  H   H21       1.0  0.28825  0.62841  0.18810  1.0000
  H   H22       1.0  0.60023  0.44070  0.81194  1.0000
  H   H23       1.0  0.83707  0.85808  0.71354  1.0000
  H   H24       1.0  0.62391  0.14519  0.28642  1.0000
  H   H25       1.0  0.62053  0.75112  0.63593  1.0000
  H   H26       1.0  0.48518  0.11561  0.36416  1.0000
  H   H27       1.0  0.72371  0.75449  0.78485  1.0000
  H   H28       1.0  0.43946  0.97011  0.21522  1.0000
  C   C1        1.0  0.20460  0.47573  0.72268  1.0000
  C   C2        1.0  0.98146  0.75256  0.27708  1.0000
  C   C3        1.0  0.31314  0.55024  0.67599  1.0000
  C   C4        1.0  0.13667  0.87376  0.32360  1.0000
  C   C5        1.0  0.28008  0.48316  0.54852  1.0000
  C   C6        1.0  0.23108  0.93442  0.45107  1.0000
  C   C7        1.0  0.14207  0.34281  0.47143  1.0000
  C   C8        1.0  0.17032  0.87133  0.52831  1.0000
  C   C9        1.0  0.03950  0.27402  0.52510  1.0000
  C   C10       1.0  0.01417  0.74883  0.47481  1.0000
  C   C11       1.0  0.89405  0.12346  0.45617  1.0000
  C   C12       1.0  0.93773  0.66730  0.54386  1.0000
  C   C13       1.0  0.84696  0.02706  0.33094  1.0000
  C   C14       1.0  0.01581  0.69626  0.66914  1.0000
  C   C15       1.0  0.71272  0.88193  0.27714  1.0000
  C   C16       1.0  0.93539  0.60482  0.72290  1.0000
  C   C17       1.0  0.62857  0.83658  0.34970  1.0000
  C   C18       1.0  0.77882  0.48664  0.65026  1.0000
  C   C19       1.0  0.67771  0.94078  0.47239  1.0000
  C   C20       1.0  0.70532  0.46821  0.52758  1.0000
  C   C21       1.0  0.25059  0.60351  0.08796  1.0000
  C   C22       1.0  0.66265  0.51575  0.91211  1.0000
  C   C23       1.0  0.72209  0.82324  0.72682  1.0000
  C   C24       1.0  0.49568  0.09684  0.27321  1.0000
  N   N1        1.0  0.80770  0.08018  0.52448  1.0000
  N   N2        1.0  0.78310  0.55564  0.47551  1.0000
  N   N3        1.0  0.07080  0.34258  0.64853  1.0000
  N   N4        1.0  0.92195  0.69376  0.35136  1.0000
  O   O1        1.0  0.07793  0.11702  0.75627  1.0000
  O   O2        1.0  0.82204  0.36119  0.24395  1.0000
  O   O3        1.0  0.71067  0.10157  0.73029  1.0000
  O   O4        1.0  0.48027  0.37159  0.26994  1.0000
  O   O5        1.0  0.00410  0.39453  0.87034  1.0000
  O   O6        1.0  0.63341  0.52411  0.12965  1.0000
  O   O7        1.0  0.96822  0.41347  0.07610  1.0000
  O   O8        1.0  0.39207  0.33726  0.92375  1.0000
  O   O9        1.0  0.83770  0.08387  0.93805  1.0000
  O   O10       1.0  0.39980  0.14642  0.06213  1.0000
  O   O11       1.0  0.53439  0.93784  0.81590  1.0000
  O   O12       1.0  0.21866  0.12209  0.18437  1.0000
  O   O13       1.0  0.30743  0.02821  0.83033  1.0000
  O   O14       1.0  0.97730  0.19816  0.16982  1.0000
  O   O15       1.0  0.15352  0.28778  0.01387  1.0000
  O   O16       1.0  0.63980  0.27408  0.98626  1.0000
  O   O17       1.0  0.91011  0.88677  0.05445  1.0000
  O   O18       1.0  0.35596  0.83289  0.94620  1.0000
  O   O19       1.0  0.07989  0.99296  0.92857  1.0000
  O   O20       1.0  0.65151  0.06486  0.07178  1.0000
