data_image0
_chemical_formula_structural       Hg2H20C24Br4N8O4
_chemical_formula_sum              "Hg2 H20 C24 Br4 N8 O4"
_cell_length_a       5.01836
_cell_length_b       11.4422
_cell_length_c       13.6919
_cell_angle_alpha    98.1413
_cell_angle_beta     90.0502
_cell_angle_gamma    89.9707

_space_group_name_H-M_alt    "P 1"
_space_group_IT_number       1

loop_
  _space_group_symop_operation_xyz
  'x, y, z'

loop_
  _atom_site_type_symbol
  _atom_site_label
  _atom_site_symmetry_multiplicity
  _atom_site_fract_x
  _atom_site_fract_y
  _atom_site_fract_z
  _atom_site_occupancy
  Hg  Hg1       1.0  0.88423  0.50000  0.25008  1.0000
  Hg  Hg2       1.0  0.11579  0.50005  0.74997  1.0000
  H   H1        1.0  0.14299  0.93691  0.42406  1.0000
  H   H2        1.0  0.14339  0.06305  0.07590  1.0000
  H   H3        1.0  0.85667  0.06311  0.57586  1.0000
  H   H4        1.0  0.85678  0.93694  0.92412  1.0000
  H   H5        1.0  0.44159  0.60083  0.08238  1.0000
  H   H6        1.0  0.44193  0.39923  0.41760  1.0000
  H   H7        1.0  0.55863  0.39924  0.91757  1.0000
  H   H8        1.0  0.55816  0.60078  0.58241  1.0000
  H   H9        1.0  0.08183  0.75147  0.08422  1.0000
  H   H10       1.0  0.08264  0.24852  0.41569  1.0000
  H   H11       1.0  0.91835  0.24859  0.91569  1.0000
  H   H12       1.0  0.91742  0.75150  0.58431  1.0000
  H   H13       1.0  0.02158  0.90198  0.23551  1.0000
  H   H14       1.0  0.02258  0.09793  0.26444  1.0000
  H   H15       1.0  0.97828  0.09800  0.76445  1.0000
  H   H16       1.0  0.97763  0.90203  0.73560  1.0000
  H   H17       1.0  0.68522  0.73815  0.36466  1.0000
  H   H18       1.0  0.68531  0.26186  0.13541  1.0000
  H   H19       1.0  0.31460  0.26187  0.63536  1.0000
  H   H20       1.0  0.31480  0.73814  0.86460  1.0000
  C   C1        1.0  0.41437  0.66873  0.14589  1.0000
  C   C2        1.0  0.41483  0.33130  0.35411  1.0000
  C   C3        1.0  0.58573  0.33132  0.85408  1.0000
  C   C4        1.0  0.58524  0.66870  0.64590  1.0000
  C   C5        1.0  0.21397  0.75347  0.14760  1.0000
  C   C6        1.0  0.21470  0.24652  0.35236  1.0000
  C   C7        1.0  0.78608  0.24656  0.85234  1.0000
  C   C8        1.0  0.78539  0.75348  0.64766  1.0000
  C   C9        1.0  0.18231  0.83746  0.23104  1.0000
  C   C10       1.0  0.18315  0.16248  0.26893  1.0000
  C   C11       1.0  0.81759  0.16254  0.76891  1.0000
  C   C12       1.0  0.81698  0.83750  0.73109  1.0000
  C   C13       1.0  0.35733  0.83511  0.31006  1.0000
  C   C14       1.0  0.35795  0.16482  0.18995  1.0000
  C   C15       1.0  0.64246  0.16487  0.68992  1.0000
  C   C16       1.0  0.64220  0.83514  0.81008  1.0000
  C   C17       1.0  0.55139  0.74641  0.30324  1.0000
  C   C18       1.0  0.55170  0.25359  0.19681  1.0000
  C   C19       1.0  0.44848  0.25360  0.69676  1.0000
  C   C20       1.0  0.44840  0.74640  0.80321  1.0000
  C   C21       1.0  0.54112  0.96296  0.45109  1.0000
  C   C22       1.0  0.54148  0.03705  0.04889  1.0000
  C   C23       1.0  0.45855  0.03708  0.54886  1.0000
  C   C24       1.0  0.45869  0.96294  0.95113  1.0000
  Br  Br1       1.0  0.06140  0.60373  0.41429  1.0000
  Br  Br2       1.0  0.06083  0.39625  0.08590  1.0000
  Br  Br3       1.0  0.93844  0.39622  0.58582  1.0000
  Br  Br4       1.0  0.93901  0.60363  0.91418  1.0000
  N   N1        1.0  0.57755  0.66518  0.22353  1.0000
  N   N2        1.0  0.57781  0.33484  0.27652  1.0000
  N   N3        1.0  0.42245  0.33485  0.77646  1.0000
  N   N4        1.0  0.42228  0.66515  0.72351  1.0000
  N   N5        1.0  0.33180  0.91456  0.39820  1.0000
  N   N6        1.0  0.33227  0.08539  0.10179  1.0000
  N   N7        1.0  0.66790  0.08544  0.60176  1.0000
  N   N8        1.0  0.66790  0.91458  0.89823  1.0000
  O   O1        1.0  0.77844  0.95198  0.42571  1.0000
  O   O2        1.0  0.77890  0.04800  0.07431  1.0000
  O   O3        1.0  0.22125  0.04804  0.57426  1.0000
  O   O4        1.0  0.22127  0.95196  0.92572  1.0000
