data_image0
_chemical_formula_structural       Cd2H18C18S2N8O12
_chemical_formula_sum              "Cd2 H18 C18 S2 N8 O12"
_cell_length_a       8.641
_cell_length_b       9.29287
_cell_length_c       9.67597
_cell_angle_alpha    75.4854
_cell_angle_beta     79.6408
_cell_angle_gamma    78.9474

_space_group_name_H-M_alt    "P 1"
_space_group_IT_number       1

loop_
  _space_group_symop_operation_xyz
  'x, y, z'

loop_
  _atom_site_type_symbol
  _atom_site_label
  _atom_site_symmetry_multiplicity
  _atom_site_fract_x
  _atom_site_fract_y
  _atom_site_fract_z
  _atom_site_occupancy
  Cd  Cd1       1.0  0.05842  0.11389  0.13041  1.0000
  Cd  Cd2       1.0  0.94158  0.88611  0.86959  1.0000
  H   H1        1.0  0.14616  0.94758  0.44606  1.0000
  H   H2        1.0  0.85384  0.05241  0.55393  1.0000
  H   H3        1.0  0.30886  0.96537  0.62585  1.0000
  H   H4        1.0  0.69113  0.03461  0.37415  1.0000
  H   H5        1.0  0.43519  0.20037  0.58433  1.0000
  H   H6        1.0  0.56482  0.79962  0.41568  1.0000
  H   H7        1.0  0.38640  0.40400  0.36529  1.0000
  H   H8        1.0  0.61361  0.59600  0.63471  1.0000
  H   H9        1.0  0.30686  0.47604  0.13267  1.0000
  H   H10       1.0  0.69315  0.52396  0.86734  1.0000
  H   H11       1.0  0.10148  0.48991  0.19727  1.0000
  H   H12       1.0  0.89853  0.51010  0.80273  1.0000
  H   H13       1.0  0.32638  0.32205  0.80134  1.0000
  H   H14       1.0  0.67361  0.67796  0.19866  1.0000
  H   H15       1.0  0.43511  0.38119  0.91141  1.0000
  H   H16       1.0  0.56489  0.61881  0.08859  1.0000
  H   H17       1.0  0.66202  0.18415  0.85407  1.0000
  H   H18       1.0  0.33797  0.81585  0.14592  1.0000
  C   C1        1.0  0.19954  0.04796  0.43370  1.0000
  C   C2        1.0  0.80045  0.95204  0.56630  1.0000
  C   C3        1.0  0.29154  0.05859  0.53349  1.0000
  C   C4        1.0  0.70846  0.94140  0.46652  1.0000
  C   C5        1.0  0.35978  0.18858  0.51003  1.0000
  C   C6        1.0  0.64023  0.81142  0.48997  1.0000
  C   C7        1.0  0.33319  0.30200  0.38849  1.0000
  C   C8        1.0  0.66682  0.69799  0.61151  1.0000
  C   C9        1.0  0.23933  0.28356  0.29217  1.0000
  C   C10       1.0  0.76065  0.71644  0.70784  1.0000
  C   C11       1.0  0.20726  0.41182  0.16482  1.0000
  C   C12       1.0  0.79274  0.58818  0.83519  1.0000
  C   C13       1.0  0.35177  0.30531  0.91236  1.0000
  C   C14       1.0  0.64822  0.69470  0.08764  1.0000
  C   C15       1.0  0.42572  0.14427  0.96303  1.0000
  C   C16       1.0  0.57428  0.85574  0.03698  1.0000
  C   C17       1.0  0.58819  0.10213  0.91922  1.0000
  C   C18       1.0  0.41180  0.89787  0.08077  1.0000
  S   S1        1.0  0.16111  0.37336  0.00396  1.0000
  S   S2        1.0  0.83888  0.62665  0.99605  1.0000
  N   N1        1.0  0.17397  0.15785  0.31544  1.0000
  N   N2        1.0  0.82602  0.84215  0.68456  1.0000
  N   N3        1.0  0.33924  0.03992  0.04390  1.0000
  N   N4        1.0  0.66075  0.96008  0.95609  1.0000
  N   N5        1.0  0.98539  0.80341  0.23997  1.0000
  N   N6        1.0  0.01462  0.19660  0.76003  1.0000
  N   N7        1.0  0.73473  0.28150  0.13168  1.0000
  N   N8        1.0  0.26527  0.71851  0.86831  1.0000
  O   O1        1.0  0.93170  0.68309  0.26803  1.0000
  O   O2        1.0  0.06829  0.31692  0.73197  1.0000
  O   O3        1.0  0.91947  0.91969  0.15003  1.0000
  O   O4        1.0  0.08055  0.08032  0.84996  1.0000
  O   O5        1.0  0.10044  0.82087  0.29454  1.0000
  O   O6        1.0  0.89957  0.17913  0.70546  1.0000
  O   O7        1.0  0.79404  0.24977  0.24904  1.0000
  O   O8        1.0  0.20595  0.75023  0.75096  1.0000
  O   O9        1.0  0.59664  0.35126  0.12163  1.0000
  O   O10       1.0  0.40337  0.64874  0.87836  1.0000
  O   O11       1.0  0.82074  0.23998  0.02142  1.0000
  O   O12       1.0  0.17927  0.76003  0.97857  1.0000
