data_image0
_chemical_formula_structural       Zn4H16C24N16O8
_chemical_formula_sum              "Zn4 H16 C24 N16 O8"
_cell_length_a       5.88682
_cell_length_b       10.3713
_cell_length_c       12.6275
_cell_angle_alpha    89.9998
_cell_angle_beta     89.9999
_cell_angle_gamma    90.0001

_space_group_name_H-M_alt    "P 1"
_space_group_IT_number       1

loop_
  _space_group_symop_operation_xyz
  'x, y, z'

loop_
  _atom_site_type_symbol
  _atom_site_label
  _atom_site_symmetry_multiplicity
  _atom_site_fract_x
  _atom_site_fract_y
  _atom_site_fract_z
  _atom_site_occupancy
  Zn  Zn1       1.0  0.20619  0.32880  0.49040  1.0000
  Zn  Zn2       1.0  0.29381  0.67120  0.99039  1.0000
  Zn  Zn3       1.0  0.79381  0.82880  0.00960  1.0000
  Zn  Zn4       1.0  0.70619  0.17119  0.50961  1.0000
  H   H1        1.0  0.29169  0.46811  0.28877  1.0000
  H   H2        1.0  0.20832  0.53189  0.78877  1.0000
  H   H3        1.0  0.70832  0.96811  0.21123  1.0000
  H   H4        1.0  0.79167  0.03189  0.71123  1.0000
  H   H5        1.0  0.82003  0.74460  0.34795  1.0000
  H   H6        1.0  0.67998  0.25539  0.84796  1.0000
  H   H7        1.0  0.17997  0.24460  0.15204  1.0000
  H   H8        1.0  0.32003  0.75540  0.65205  1.0000
  H   H9        1.0  0.80284  0.68060  0.54208  1.0000
  H   H10       1.0  0.69717  0.31940  0.04208  1.0000
  H   H11       1.0  0.19716  0.18060  0.95792  1.0000
  H   H12       1.0  0.30284  0.81940  0.45792  1.0000
  H   H13       1.0  0.52590  0.51210  0.59712  1.0000
  H   H14       1.0  0.97410  0.48790  0.09712  1.0000
  H   H15       1.0  0.47410  0.01210  0.90288  1.0000
  H   H16       1.0  0.02590  0.98790  0.40288  1.0000
  C   C1        1.0  0.40462  0.51861  0.34287  1.0000
  C   C2        1.0  0.09538  0.48139  0.84287  1.0000
  C   C3        1.0  0.59538  0.01861  0.15713  1.0000
  C   C4        1.0  0.90462  0.98139  0.65713  1.0000
  C   C5        1.0  0.55214  0.61306  0.30501  1.0000
  C   C6        1.0  0.94786  0.38694  0.80501  1.0000
  C   C7        1.0  0.44786  0.11306  0.19499  1.0000
  C   C8        1.0  0.05214  0.88694  0.69499  1.0000
  C   C9        1.0  0.70039  0.67237  0.37668  1.0000
  C   C10       1.0  0.79962  0.32763  0.87668  1.0000
  C   C11       1.0  0.29961  0.17237  0.12332  1.0000
  C   C12       1.0  0.20038  0.82763  0.62332  1.0000
  C   C13       1.0  0.69162  0.63718  0.48321  1.0000
  C   C14       1.0  0.80838  0.36282  0.98321  1.0000
  C   C15       1.0  0.30838  0.13718  0.01679  1.0000
  C   C16       1.0  0.19162  0.86283  0.51679  1.0000
  C   C17       1.0  0.53805  0.54286  0.51490  1.0000
  C   C18       1.0  0.96195  0.45714  0.01490  1.0000
  C   C19       1.0  0.46195  0.04286  0.98510  1.0000
  C   C20       1.0  0.03805  0.95714  0.48510  1.0000
  C   C21       1.0  0.54788  0.64886  0.18951  1.0000
  C   C22       1.0  0.95212  0.35114  0.68951  1.0000
  C   C23       1.0  0.45212  0.14886  0.31049  1.0000
  C   C24       1.0  0.04788  0.85114  0.81049  1.0000
  N   N1        1.0  0.39856  0.48360  0.44543  1.0000
  N   N2        1.0  0.10145  0.51640  0.94543  1.0000
  N   N3        1.0  0.60145  0.98360  0.05456  1.0000
  N   N4        1.0  0.89855  0.01640  0.55457  1.0000
  N   N5        1.0  0.38808  0.19134  0.57154  1.0000
  N   N6        1.0  0.11192  0.80866  0.07154  1.0000
  N   N7        1.0  0.61192  0.69134  0.92846  1.0000
  N   N8        1.0  0.88807  0.30866  0.42846  1.0000
  N   N9        1.0  0.36201  0.17523  0.66613  1.0000
  N   N10       1.0  0.13799  0.82477  0.16613  1.0000
  N   N11       1.0  0.63799  0.67523  0.83387  1.0000
  N   N12       1.0  0.86200  0.32477  0.33387  1.0000
  N   N13       1.0  0.33337  0.15793  0.75558  1.0000
  N   N14       1.0  0.16662  0.84207  0.25558  1.0000
  N   N15       1.0  0.66663  0.65793  0.74442  1.0000
  N   N16       1.0  0.83338  0.34207  0.24442  1.0000
  O   O1        1.0  0.40252  0.59005  0.13191  1.0000
  O   O2        1.0  0.09748  0.40995  0.63191  1.0000
  O   O3        1.0  0.59747  0.09004  0.36809  1.0000
  O   O4        1.0  0.90252  0.90995  0.86809  1.0000
  O   O5        1.0  0.68481  0.73541  0.15944  1.0000
  O   O6        1.0  0.81519  0.26458  0.65944  1.0000
  O   O7        1.0  0.31519  0.23541  0.34056  1.0000
  O   O8        1.0  0.18481  0.76459  0.84056  1.0000
