data_image0
_chemical_formula_structural       Cu4H24C16O24
_chemical_formula_sum              "Cu4 H24 C16 O24"
_cell_length_a       6.9217
_cell_length_b       8.48861
_cell_length_c       11.6083
_cell_angle_alpha    104.867
_cell_angle_beta     90
_cell_angle_gamma    90.0001

_space_group_name_H-M_alt    "P 1"
_space_group_IT_number       1

loop_
  _space_group_symop_operation_xyz
  'x, y, z'

loop_
  _atom_site_type_symbol
  _atom_site_label
  _atom_site_symmetry_multiplicity
  _atom_site_fract_x
  _atom_site_fract_y
  _atom_site_fract_z
  _atom_site_occupancy
  Cu  Cu1       1.0  0.56200  0.58006  0.14609  1.0000
  Cu  Cu2       1.0  0.06199  0.41995  0.35391  1.0000
  Cu  Cu3       1.0  0.43801  0.41995  0.85391  1.0000
  Cu  Cu4       1.0  0.93801  0.58006  0.64609  1.0000
  H   H1        1.0  0.47631  0.07255  0.39105  1.0000
  H   H2        1.0  0.97631  0.92745  0.10895  1.0000
  H   H3        1.0  0.52369  0.92746  0.60896  1.0000
  H   H4        1.0  0.02369  0.07255  0.89105  1.0000
  H   H5        1.0  0.49752  0.07902  0.89398  1.0000
  H   H6        1.0  0.99751  0.92098  0.60602  1.0000
  H   H7        1.0  0.50249  0.92098  0.10603  1.0000
  H   H8        1.0  0.00248  0.07901  0.39398  1.0000
  H   H9        1.0  0.21975  0.45408  0.14948  1.0000
  H   H10       1.0  0.71975  0.54592  0.35052  1.0000
  H   H11       1.0  0.78026  0.54592  0.85052  1.0000
  H   H12       1.0  0.28026  0.45408  0.64948  1.0000
  H   H13       1.0  0.21332  0.64198  0.23520  1.0000
  H   H14       1.0  0.71331  0.35802  0.26479  1.0000
  H   H15       1.0  0.78668  0.35802  0.76479  1.0000
  H   H16       1.0  0.28668  0.64198  0.73520  1.0000
  H   H17       1.0  0.90529  0.67128  0.18530  1.0000
  H   H18       1.0  0.40528  0.32873  0.31470  1.0000
  H   H19       1.0  0.09472  0.32873  0.81470  1.0000
  H   H20       1.0  0.59472  0.67127  0.68530  1.0000
  H   H21       1.0  0.86344  0.66516  0.04682  1.0000
  H   H22       1.0  0.36345  0.33484  0.45318  1.0000
  H   H23       1.0  0.13655  0.33484  0.95318  1.0000
  H   H24       1.0  0.63655  0.66516  0.54682  1.0000
  C   C1        1.0  0.56314  0.81874  0.36786  1.0000
  C   C2        1.0  0.06313  0.18126  0.13214  1.0000
  C   C3        1.0  0.43686  0.18126  0.63215  1.0000
  C   C4        1.0  0.93687  0.81874  0.86785  1.0000
  C   C5        1.0  0.50760  0.98250  0.44056  1.0000
  C   C6        1.0  0.00758  0.01751  0.05944  1.0000
  C   C7        1.0  0.49241  0.01751  0.55945  1.0000
  C   C8        1.0  0.99241  0.98249  0.94055  1.0000
  C   C9        1.0  0.54105  0.22712  0.07890  1.0000
  C   C10       1.0  0.04105  0.77288  0.42110  1.0000
  C   C11       1.0  0.45895  0.77288  0.92111  1.0000
  C   C12       1.0  0.95895  0.22711  0.57889  1.0000
  C   C13       1.0  0.50855  0.07181  0.98625  1.0000
  C   C14       1.0  0.00856  0.92819  0.51375  1.0000
  C   C15       1.0  0.49145  0.92819  0.01376  1.0000
  C   C16       1.0  0.99145  0.07181  0.48624  1.0000
  O   O1        1.0  0.61541  0.70917  0.41774  1.0000
  O   O2        1.0  0.11540  0.29082  0.08226  1.0000
  O   O3        1.0  0.38459  0.29083  0.58226  1.0000
  O   O4        1.0  0.88459  0.70917  0.91773  1.0000
  O   O5        1.0  0.55222  0.79986  0.25467  1.0000
  O   O6        1.0  0.05221  0.20013  0.24534  1.0000
  O   O7        1.0  0.44778  0.20014  0.74534  1.0000
  O   O8        1.0  0.94779  0.79987  0.75466  1.0000
  O   O9        1.0  0.55451  0.35561  0.03874  1.0000
  O   O10       1.0  0.05451  0.64439  0.46126  1.0000
  O   O11       1.0  0.44550  0.64439  0.96126  1.0000
  O   O12       1.0  0.94549  0.35561  0.53873  1.0000
  O   O13       1.0  0.55468  0.22775  0.18806  1.0000
  O   O14       1.0  0.05469  0.77225  0.31194  1.0000
  O   O15       1.0  0.44532  0.77225  0.81195  1.0000
  O   O16       1.0  0.94531  0.22775  0.68805  1.0000
  O   O17       1.0  0.29963  0.54840  0.19648  1.0000
  O   O18       1.0  0.79964  0.45160  0.30351  1.0000
  O   O19       1.0  0.70036  0.45160  0.80351  1.0000
  O   O20       1.0  0.20037  0.54840  0.69648  1.0000
  O   O21       1.0  0.83863  0.61001  0.11201  1.0000
  O   O22       1.0  0.33862  0.38999  0.38799  1.0000
  O   O23       1.0  0.16137  0.39000  0.88799  1.0000
  O   O24       1.0  0.66138  0.61001  0.61201  1.0000
