data_image0
_chemical_formula_structural       Cd3H24C22S4N4Cl6O6
_chemical_formula_sum              "Cd3 H24 C22 S4 N4 Cl6 O6"
_cell_length_a       7.52219
_cell_length_b       9.85628
_cell_length_c       12.7501
_cell_angle_alpha    83.5856
_cell_angle_beta     74.3613
_cell_angle_gamma    68.8261

_space_group_name_H-M_alt    "P 1"
_space_group_IT_number       1

loop_
  _space_group_symop_operation_xyz
  'x, y, z'

loop_
  _atom_site_type_symbol
  _atom_site_label
  _atom_site_symmetry_multiplicity
  _atom_site_fract_x
  _atom_site_fract_y
  _atom_site_fract_z
  _atom_site_occupancy
  Cd  Cd1       1.0  0.00001  1.00000  1.00000  1.0000
  Cd  Cd2       1.0  0.96823  0.03984  0.29327  1.0000
  Cd  Cd3       1.0  0.03177  0.96017  0.70673  1.0000
  H   H1        1.0  0.21642  0.56705  0.90052  1.0000
  H   H2        1.0  0.78359  0.43294  0.09949  1.0000
  H   H3        1.0  0.29810  0.54849  0.07974  1.0000
  H   H4        1.0  0.70190  0.45149  0.92027  1.0000
  H   H5        1.0  0.35772  0.30822  0.18378  1.0000
  H   H6        1.0  0.64228  0.69175  0.81623  1.0000
  H   H7        1.0  0.32765  0.09731  0.10164  1.0000
  H   H8        1.0  0.67237  0.90267  0.89836  1.0000
  H   H9        1.0  0.54480  0.33367  0.73065  1.0000
  H   H10       1.0  0.45520  0.66634  0.26935  1.0000
  H   H11       1.0  0.85628  0.38282  0.65362  1.0000
  H   H12       1.0  0.14371  0.61720  0.34638  1.0000
  H   H13       1.0  0.84469  0.61903  0.54845  1.0000
  H   H14       1.0  0.15529  0.38099  0.45154  1.0000
  H   H15       1.0  0.51788  0.79096  0.52223  1.0000
  H   H16       1.0  0.48209  0.20905  0.47776  1.0000
  H   H17       1.0  0.17017  0.11424  0.41557  1.0000
  H   H18       1.0  0.82983  0.88577  0.58444  1.0000
  H   H19       1.0  0.50457  0.01792  0.35367  1.0000
  H   H20       1.0  0.49543  0.98209  0.64633  1.0000
  H   H21       1.0  0.47228  0.96185  0.23400  1.0000
  H   H22       1.0  0.52772  0.03816  0.76600  1.0000
  H   H23       1.0  0.40249  0.87743  0.36283  1.0000
  H   H24       1.0  0.59752  0.12257  0.63717  1.0000
  C   C1        1.0  0.22461  0.34616  0.90818  1.0000
  C   C2        1.0  0.77539  0.65383  0.09182  1.0000
  C   C3        1.0  0.24095  0.46576  0.94778  1.0000
  C   C4        1.0  0.75906  0.53422  0.05223  1.0000
  C   C5        1.0  0.28712  0.45443  0.04795  1.0000
  C   C6        1.0  0.71288  0.54556  0.95206  1.0000
  C   C7        1.0  0.31849  0.32254  0.10621  1.0000
  C   C8        1.0  0.68151  0.67744  0.89380  1.0000
  C   C9        1.0  0.30255  0.20512  0.06423  1.0000
  C   C10       1.0  0.69747  0.79488  0.93577  1.0000
  C   C11       1.0  0.36821  0.53215  0.66605  1.0000
  C   C12       1.0  0.63179  0.46786  0.33395  1.0000
  C   C13       1.0  0.54445  0.43272  0.68332  1.0000
  C   C14       1.0  0.45555  0.56730  0.31667  1.0000
  C   C15       1.0  0.71823  0.46179  0.64110  1.0000
  C   C16       1.0  0.28176  0.53823  0.35890  1.0000
  C   C17       1.0  0.71289  0.59116  0.58237  1.0000
  C   C18       1.0  0.28710  0.40885  0.41762  1.0000
  C   C19       1.0  0.53551  0.68806  0.56666  1.0000
  C   C20       1.0  0.46447  0.31194  0.43333  1.0000
  C   C21       1.0  0.40970  0.98007  0.32139  1.0000
  C   C22       1.0  0.59031  0.01994  0.67860  1.0000
  S   S1        1.0  0.17651  0.32276  0.78491  1.0000
  S   S2        1.0  0.82350  0.67724  0.21509  1.0000
  S   S3        1.0  0.12843  0.52792  0.71381  1.0000
  S   S4        1.0  0.87156  0.47208  0.28620  1.0000
  N   N1        1.0  0.25409  0.21919  0.96756  1.0000
  N   N2        1.0  0.74593  0.78079  0.03244  1.0000
  N   N3        1.0  0.36709  0.65805  0.60820  1.0000
  N   N4        1.0  0.63290  0.34196  0.39180  1.0000
  Cl  Cl1       1.0  0.78354  0.18464  0.15471  1.0000
  Cl  Cl2       1.0  0.21646  0.81536  0.84529  1.0000
  Cl  Cl3       1.0  0.21415  0.86081  0.14140  1.0000
  Cl  Cl4       1.0  0.78585  0.13920  0.85861  1.0000
  Cl  Cl5       1.0  0.84674  0.86794  0.42346  1.0000
  Cl  Cl6       1.0  0.15326  0.13207  0.57654  1.0000
  O   O1        1.0  0.24007  0.10918  0.92279  1.0000
  O   O2        1.0  0.75994  0.89081  0.07721  1.0000
  O   O3        1.0  0.19488  0.74926  0.59515  1.0000
  O   O4        1.0  0.80510  0.25074  0.40485  1.0000
  O   O5        1.0  0.21602  0.08972  0.33670  1.0000
  O   O6        1.0  0.78398  0.91029  0.66330  1.0000
