data_image0
_chemical_formula_structural       Na2H28C24S4N6O22
_chemical_formula_sum              "Na2 H28 C24 S4 N6 O22"
_cell_length_a       6.223
_cell_length_b       7.71022
_cell_length_c       18.7194
_cell_angle_alpha    99.1041
_cell_angle_beta     90.0002
_cell_angle_gamma    90.0001

_space_group_name_H-M_alt    "P 1"
_space_group_IT_number       1

loop_
  _space_group_symop_operation_xyz
  'x, y, z'

loop_
  _atom_site_type_symbol
  _atom_site_label
  _atom_site_symmetry_multiplicity
  _atom_site_fract_x
  _atom_site_fract_y
  _atom_site_fract_z
  _atom_site_occupancy
  Na  Na1       1.0  0.56123  0.83673  0.02475  1.0000
  Na  Na2       1.0  0.06123  0.16328  0.97525  1.0000
  H   H1        1.0  0.20640  0.01592  0.09752  1.0000
  H   H2        1.0  0.70641  0.98409  0.90248  1.0000
  H   H3        1.0  0.09748  0.86298  0.04293  1.0000
  H   H4        1.0  0.59749  0.13703  0.95706  1.0000
  H   H5        1.0  0.54998  0.57083  0.88562  1.0000
  H   H6        1.0  0.04999  0.42918  0.11438  1.0000
  H   H7        1.0  0.31200  0.62257  0.90575  1.0000
  H   H8        1.0  0.81200  0.37744  0.09424  1.0000
  H   H9        1.0  0.95538  0.67326  0.96519  1.0000
  H   H10       1.0  0.45539  0.32675  0.03480  1.0000
  H   H11       1.0  0.93160  0.58491  0.03490  1.0000
  H   H12       1.0  0.43160  0.41510  0.96510  1.0000
  H   H13       1.0  0.36223  0.63299  0.31986  1.0000
  H   H14       1.0  0.86225  0.36700  0.68013  1.0000
  H   H15       1.0  0.59668  0.79219  0.41750  1.0000
  H   H16       1.0  0.09671  0.20780  0.58250  1.0000
  H   H17       1.0  0.06500  0.88411  0.25819  1.0000
  H   H18       1.0  0.56501  0.11588  0.74181  1.0000
  H   H19       1.0  0.83062  0.72851  0.16009  1.0000
  H   H20       1.0  0.33062  0.27148  0.83991  1.0000
  H   H21       1.0  0.33638  0.15821  0.31288  1.0000
  H   H22       1.0  0.83637  0.84179  0.68713  1.0000
  H   H23       1.0  0.47295  0.21784  0.44001  1.0000
  H   H24       1.0  0.97294  0.78215  0.55999  1.0000
  H   H25       1.0  0.07235  0.39992  0.36340  1.0000
  H   H26       1.0  0.57234  0.60008  0.63659  1.0000
  H   H27       1.0  0.94017  0.33680  0.23571  1.0000
  H   H28       1.0  0.44018  0.66320  0.76428  1.0000
  C   C1        1.0  0.58639  0.66923  0.23500  1.0000
  C   C2        1.0  0.08640  0.33076  0.76500  1.0000
  C   C3        1.0  0.51582  0.68706  0.30662  1.0000
  C   C4        1.0  0.01584  0.31292  0.69338  1.0000
  C   C5        1.0  0.64524  0.77582  0.36109  1.0000
  C   C6        1.0  0.14525  0.22418  0.63891  1.0000
  C   C7        1.0  0.84205  0.84168  0.34212  1.0000
  C   C8        1.0  0.34206  0.15831  0.65788  1.0000
  C   C9        1.0  0.91202  0.82778  0.27067  1.0000
  C   C10       1.0  0.41204  0.17222  0.72933  1.0000
  C   C11       1.0  0.78141  0.74066  0.21639  1.0000
  C   C12       1.0  0.28142  0.25933  0.78362  1.0000
  C   C13       1.0  0.62872  0.24491  0.26762  1.0000
  C   C14       1.0  0.12871  0.75510  0.73238  1.0000
  C   C15       1.0  0.49580  0.21317  0.32426  1.0000
  C   C16       1.0  0.99579  0.78683  0.67574  1.0000
  C   C17       1.0  0.57124  0.24660  0.39522  1.0000
  C   C18       1.0  0.07122  0.75340  0.60478  1.0000
  C   C19       1.0  0.77898  0.31183  0.40695  1.0000
  C   C20       1.0  0.27896  0.68817  0.59304  1.0000
  C   C21       1.0  0.91223  0.34716  0.35084  1.0000
  C   C22       1.0  0.41221  0.65283  0.64916  1.0000
  C   C23       1.0  0.83676  0.31258  0.28004  1.0000
  C   C24       1.0  0.33675  0.68742  0.71996  1.0000
  S   S1        1.0  0.43111  0.54912  0.16447  1.0000
  S   S2        1.0  0.93112  0.45088  0.83554  1.0000
  S   S3        1.0  0.52844  0.19198  0.17753  1.0000
  S   S4        1.0  0.02844  0.80802  0.82247  1.0000
  N   N1        1.0  0.55653  0.36570  0.13933  1.0000
  N   N2        1.0  0.05654  0.63430  0.86067  1.0000
  N   N3        1.0  0.98121  0.93056  0.40018  1.0000
  N   N4        1.0  0.48124  0.06943  0.59982  1.0000
  N   N5        1.0  0.86673  0.33577  0.48087  1.0000
  N   N6        1.0  0.36672  0.66424  0.51913  1.0000
  O   O1        1.0  0.20235  0.96178  0.04636  1.0000
  O   O2        1.0  0.70235  0.03822  0.95364  1.0000
  O   O3        1.0  0.45403  0.60259  0.92753  1.0000
  O   O4        1.0  0.95403  0.39743  0.07246  1.0000
  O   O5        1.0  0.91319  0.69903  0.01638  1.0000
  O   O6        1.0  0.41321  0.30097  0.98362  1.0000
  O   O7        1.0  0.44497  0.64176  0.10304  1.0000
  O   O8        1.0  0.94498  0.35825  0.89696  1.0000
  O   O9        1.0  0.21748  0.52393  0.19323  1.0000
  O   O10       1.0  0.71749  0.47609  0.80677  1.0000
  O   O11       1.0  0.67023  0.06294  0.13680  1.0000
  O   O12       1.0  0.17022  0.93706  0.86320  1.0000
  O   O13       1.0  0.30422  0.14181  0.18417  1.0000
  O   O14       1.0  0.80421  0.85820  0.81583  1.0000
  O   O15       1.0  0.90986  0.95372  0.46273  1.0000
  O   O16       1.0  0.40988  0.04627  0.53727  1.0000
  O   O17       1.0  0.16188  0.97827  0.38287  1.0000
  O   O18       1.0  0.66192  0.02173  0.61714  1.0000
  O   O19       1.0  0.74173  0.33087  0.53199  1.0000
  O   O20       1.0  0.24172  0.66914  0.46801  1.0000
  O   O21       1.0  0.06398  0.35620  0.48740  1.0000
  O   O22       1.0  0.56397  0.64378  0.51260  1.0000
