data_image0
_chemical_formula_structural       Ag4H32C28S8N4O16
_chemical_formula_sum              "Ag4 H32 C28 S8 N4 O16"
_cell_length_a       6.5297
_cell_length_b       7.82705
_cell_length_c       20.3026
_cell_angle_alpha    97.438
_cell_angle_beta     90.0001
_cell_angle_gamma    90

_space_group_name_H-M_alt    "P 1"
_space_group_IT_number       1

loop_
  _space_group_symop_operation_xyz
  'x, y, z'

loop_
  _atom_site_type_symbol
  _atom_site_label
  _atom_site_symmetry_multiplicity
  _atom_site_fract_x
  _atom_site_fract_y
  _atom_site_fract_z
  _atom_site_occupancy
  Ag  Ag1       1.0  0.71424  0.21918  0.46029  1.0000
  Ag  Ag2       1.0  0.21424  0.28082  0.03971  1.0000
  Ag  Ag3       1.0  0.28576  0.78082  0.53971  1.0000
  Ag  Ag4       1.0  0.78576  0.71918  0.96029  1.0000
  H   H1        1.0  0.14431  0.17981  0.54212  1.0000
  H   H2        1.0  0.64431  0.32019  0.95788  1.0000
  H   H3        1.0  0.85569  0.82019  0.45788  1.0000
  H   H4        1.0  0.35569  0.67981  0.04212  1.0000
  H   H5        1.0  0.08601  0.40557  0.56306  1.0000
  H   H6        1.0  0.58602  0.09443  0.93694  1.0000
  H   H7        1.0  0.91399  0.59443  0.43694  1.0000
  H   H8        1.0  0.41398  0.90557  0.06306  1.0000
  H   H9        1.0  0.34828  0.33136  0.56447  1.0000
  H   H10       1.0  0.84828  0.16864  0.93553  1.0000
  H   H11       1.0  0.65172  0.66864  0.43553  1.0000
  H   H12       1.0  0.15172  0.83136  0.06447  1.0000
  H   H13       1.0  0.45085  0.12050  0.27970  1.0000
  H   H14       1.0  0.95085  0.37951  0.22030  1.0000
  H   H15       1.0  0.54915  0.87951  0.72030  1.0000
  H   H16       1.0  0.04915  0.62050  0.77970  1.0000
  H   H17       1.0  0.28107  0.10954  0.16973  1.0000
  H   H18       1.0  0.78107  0.39046  0.33027  1.0000
  H   H19       1.0  0.71893  0.89046  0.83027  1.0000
  H   H20       1.0  0.21893  0.60955  0.66973  1.0000
  H   H21       1.0  0.93089  0.98318  0.15287  1.0000
  H   H22       1.0  0.43089  0.51682  0.34713  1.0000
  H   H23       1.0  0.06910  0.01682  0.84713  1.0000
  H   H24       1.0  0.56910  0.48319  0.65287  1.0000
  H   H25       1.0  0.74912  0.87352  0.24694  1.0000
  H   H26       1.0  0.24912  0.62649  0.25306  1.0000
  H   H27       1.0  0.25088  0.12648  0.75307  1.0000
  H   H28       1.0  0.75088  0.37352  0.74693  1.0000
  H   H29       1.0  0.91705  0.88838  0.35718  1.0000
  H   H30       1.0  0.41705  0.61162  0.14282  1.0000
  H   H31       1.0  0.08295  0.11162  0.64282  1.0000
  H   H32       1.0  0.58295  0.38838  0.85718  1.0000
  C   C1        1.0  0.19835  0.31161  0.54072  1.0000
  C   C2        1.0  0.69835  0.18839  0.95928  1.0000
  C   C3        1.0  0.80166  0.68839  0.45928  1.0000
  C   C4        1.0  0.30166  0.81161  0.04072  1.0000
  C   C5        1.0  0.19376  0.00296  0.32397  1.0000
  C   C6        1.0  0.69377  0.49704  0.17603  1.0000
  C   C7        1.0  0.80624  0.99704  0.67603  1.0000
  C   C8        1.0  0.30624  0.50296  0.82397  1.0000
  C   C9        1.0  0.29763  0.06645  0.27198  1.0000
  C   C10       1.0  0.79763  0.43356  0.22802  1.0000
  C   C11       1.0  0.70237  0.93356  0.72802  1.0000
  C   C12       1.0  0.20237  0.56644  0.77198  1.0000
  C   C13       1.0  0.20125  0.05979  0.21046  1.0000
  C   C14       1.0  0.70124  0.44022  0.28954  1.0000
  C   C15       1.0  0.79875  0.94021  0.78954  1.0000
  C   C16       1.0  0.29875  0.55979  0.71046  1.0000
  C   C17       1.0  0.00460  0.98952  0.20122  1.0000
  C   C18       1.0  0.50460  0.51049  0.29878  1.0000
  C   C19       1.0  0.99540  0.01048  0.79878  1.0000
  C   C20       1.0  0.49540  0.48952  0.70122  1.0000
  C   C21       1.0  0.90241  0.92810  0.25384  1.0000
  C   C22       1.0  0.40240  0.57190  0.24616  1.0000
  C   C23       1.0  0.09760  0.07190  0.74616  1.0000
  C   C24       1.0  0.59759  0.42810  0.75384  1.0000
  C   C25       1.0  0.99633  0.93497  0.31591  1.0000
  C   C26       1.0  0.49633  0.56504  0.18409  1.0000
  C   C27       1.0  0.00367  0.06503  0.68409  1.0000
  C   C28       1.0  0.50367  0.43496  0.81591  1.0000
  S   S1        1.0  0.22549  0.34004  0.45639  1.0000
  S   S2        1.0  0.72550  0.15996  0.04361  1.0000
  S   S3        1.0  0.77450  0.65996  0.54361  1.0000
  S   S4        1.0  0.27451  0.84004  0.95639  1.0000
  S   S5        1.0  0.32466  0.00232  0.40022  1.0000
  S   S6        1.0  0.82467  0.49768  0.09978  1.0000
  S   S7        1.0  0.67534  0.99768  0.59978  1.0000
  S   S8        1.0  0.17534  0.50232  0.90022  1.0000
  N   N1        1.0  0.39415  0.20140  0.42469  1.0000
  N   N2        1.0  0.89415  0.29859  0.07531  1.0000
  N   N3        1.0  0.60585  0.79859  0.57531  1.0000
  N   N4        1.0  0.10585  0.70140  0.92469  1.0000
  O   O1        1.0  0.30960  0.51079  0.45242  1.0000
  O   O2        1.0  0.80960  0.98921  0.04758  1.0000
  O   O3        1.0  0.69039  0.48921  0.54758  1.0000
  O   O4        1.0  0.19039  0.01079  0.95242  1.0000
  O   O5        1.0  0.02594  0.30624  0.42337  1.0000
  O   O6        1.0  0.52594  0.19376  0.07663  1.0000
  O   O7        1.0  0.97406  0.69375  0.57663  1.0000
  O   O8        1.0  0.47406  0.80625  0.92337  1.0000
  O   O9        1.0  0.51576  0.90983  0.38704  1.0000
  O   O10       1.0  0.01576  0.59017  0.11296  1.0000
  O   O11       1.0  0.48424  0.09017  0.61296  1.0000
  O   O12       1.0  0.98424  0.40983  0.88704  1.0000
  O   O13       1.0  0.18165  0.93800  0.44699  1.0000
  O   O14       1.0  0.68164  0.56200  0.05301  1.0000
  O   O15       1.0  0.81836  0.06200  0.55301  1.0000
  O   O16       1.0  0.31836  0.43800  0.94699  1.0000
