data_image0
_chemical_formula_structural       Cu4H20C24N8
_chemical_formula_sum              "Cu4 H20 C24 N8"
_cell_length_a       7.62804
_cell_length_b       9.18622
_cell_length_c       9.72694
_cell_angle_alpha    118.166
_cell_angle_beta     89.9996
_cell_angle_gamma    89.9987

_space_group_name_H-M_alt    "P 1"
_space_group_IT_number       1

loop_
  _space_group_symop_operation_xyz
  'x, y, z'

loop_
  _atom_site_type_symbol
  _atom_site_label
  _atom_site_symmetry_multiplicity
  _atom_site_fract_x
  _atom_site_fract_y
  _atom_site_fract_z
  _atom_site_occupancy
  Cu  Cu1       1.0  0.82833  0.57792  0.59864  1.0000
  Cu  Cu2       1.0  0.32833  0.42209  0.40138  1.0000
  Cu  Cu3       1.0  0.82871  0.97926  0.40123  1.0000
  Cu  Cu4       1.0  0.32871  0.02075  0.59878  1.0000
  H   H1        1.0  0.54117  0.51852  0.70848  1.0000
  H   H2        1.0  0.04117  0.48149  0.29152  1.0000
  H   H3        1.0  0.54139  0.81078  0.29189  1.0000
  H   H4        1.0  0.04138  0.18920  0.70811  1.0000
  H   H5        1.0  0.28971  0.49020  0.85403  1.0000
  H   H6        1.0  0.78970  0.50980  0.14599  1.0000
  H   H7        1.0  0.28987  0.63681  0.14689  1.0000
  H   H8        1.0  0.78985  0.36317  0.85313  1.0000
  H   H9        1.0  0.23043  0.85292  0.88735  1.0000
  H   H10       1.0  0.73045  0.14709  0.11263  1.0000
  H   H11       1.0  0.23088  0.96503  0.11210  1.0000
  H   H12       1.0  0.73090  0.03497  0.88789  1.0000
  H   H13       1.0  0.07105  0.85640  0.75528  1.0000
  H   H14       1.0  0.57107  0.14360  0.24471  1.0000
  H   H15       1.0  0.07173  0.10115  0.24406  1.0000
  H   H16       1.0  0.57176  0.89886  0.75593  1.0000
  H   H17       1.0  0.15210  0.66669  0.73084  1.0000
  H   H18       1.0  0.65208  0.33331  0.26915  1.0000
  H   H19       1.0  0.15225  0.93603  0.26899  1.0000
  H   H20       1.0  0.65227  0.06397  0.73099  1.0000
  C   C1        1.0  0.82720  0.20686  0.48926  1.0000
  C   C2        1.0  0.32725  0.79314  0.51075  1.0000
  C   C3        1.0  0.82694  0.71751  0.51057  1.0000
  C   C4        1.0  0.32695  0.28249  0.48943  1.0000
  C   C5        1.0  0.96599  0.78296  0.91644  1.0000
  C   C6        1.0  0.46598  0.21705  0.08357  1.0000
  C   C7        1.0  0.96611  0.86656  0.08336  1.0000
  C   C8        1.0  0.46612  0.13344  0.91663  1.0000
  C   C9        1.0  0.68592  0.68111  0.91697  1.0000
  C   C10       1.0  0.18592  0.31889  0.08304  1.0000
  C   C11       1.0  0.68606  0.76435  0.08320  1.0000
  C   C12       1.0  0.18605  0.23566  0.91682  1.0000
  C   C13       1.0  0.54017  0.58325  0.83577  1.0000
  C   C14       1.0  0.04017  0.41675  0.16423  1.0000
  C   C15       1.0  0.54037  0.74799  0.16460  1.0000
  C   C16       1.0  0.04035  0.25200  0.83541  1.0000
  C   C17       1.0  0.40016  0.56786  0.91782  1.0000
  C   C18       1.0  0.90014  0.43214  0.08218  1.0000
  C   C19       1.0  0.40025  0.65049  0.08278  1.0000
  C   C20       1.0  0.90023  0.34949  0.91722  1.0000
  C   C21       1.0  0.11386  0.79138  0.81982  1.0000
  C   C22       1.0  0.61387  0.20863  0.18017  1.0000
  C   C23       1.0  0.11425  0.97149  0.17979  1.0000
  C   C24       1.0  0.61427  0.02852  0.82021  1.0000
  N   N1        1.0  0.82810  0.69252  0.83670  1.0000
  N   N2        1.0  0.32809  0.30748  0.16330  1.0000
  N   N3        1.0  0.82829  0.85597  0.16323  1.0000
  N   N4        1.0  0.32831  0.14402  0.83678  1.0000
  N   N5        1.0  0.83309  0.34980  0.53191  1.0000
  N   N6        1.0  0.33310  0.65020  0.46809  1.0000
  N   N7        1.0  0.83307  0.81788  0.46800  1.0000
  N   N8        1.0  0.33307  0.18212  0.53199  1.0000
