data_image0
_chemical_formula_structural       Sn4P4H8C12O12
_chemical_formula_sum              "Sn4 P4 H8 C12 O12"
_cell_length_a       4.83824
_cell_length_b       6.83534
_cell_length_c       16.4396
_cell_angle_alpha    90
_cell_angle_beta     90.0001
_cell_angle_gamma    106.556

_space_group_name_H-M_alt    "P 1"
_space_group_IT_number       1

loop_
  _space_group_symop_operation_xyz
  'x, y, z'

loop_
  _atom_site_type_symbol
  _atom_site_label
  _atom_site_symmetry_multiplicity
  _atom_site_fract_x
  _atom_site_fract_y
  _atom_site_fract_z
  _atom_site_occupancy
  Sn  Sn1       1.0  0.02277  0.10329  0.33056  1.0000
  Sn  Sn2       1.0  0.97723  0.39671  0.83056  1.0000
  Sn  Sn3       1.0  0.97723  0.89671  0.66944  1.0000
  Sn  Sn4       1.0  0.02277  0.60329  0.16944  1.0000
  P   P1        1.0  0.41127  0.24566  0.15923  1.0000
  P   P2        1.0  0.58873  0.25434  0.65923  1.0000
  P   P3        1.0  0.58873  0.75434  0.84077  1.0000
  P   P4        1.0  0.41127  0.74566  0.34077  1.0000
  H   H1        1.0  0.23965  0.26452  0.99032  1.0000
  H   H2        1.0  0.76035  0.23547  0.49032  1.0000
  H   H3        1.0  0.76035  0.73547  0.00968  1.0000
  H   H4        1.0  0.23965  0.76453  0.50968  1.0000
  H   H5        1.0  0.70596  0.93393  0.13256  1.0000
  H   H6        1.0  0.29405  0.56607  0.63256  1.0000
  H   H7        1.0  0.29405  0.06607  0.86744  1.0000
  H   H8        1.0  0.70595  0.43393  0.36744  1.0000
  C   C1        1.0  0.46637  0.11075  0.06924  1.0000
  C   C2        1.0  0.53363  0.38925  0.56924  1.0000
  C   C3        1.0  0.53363  0.88925  0.93076  1.0000
  C   C4        1.0  0.46637  0.61075  0.43076  1.0000
  C   C5        1.0  0.35321  0.14829  0.99428  1.0000
  C   C6        1.0  0.64679  0.35171  0.49428  1.0000
  C   C7        1.0  0.64679  0.85171  0.00572  1.0000
  C   C8        1.0  0.35321  0.64829  0.50572  1.0000
  C   C9        1.0  0.61386  0.96168  0.07458  1.0000
  C   C10       1.0  0.38614  0.53832  0.57458  1.0000
  C   C11       1.0  0.38614  0.03832  0.92542  1.0000
  C   C12       1.0  0.61386  0.46168  0.42542  1.0000
  O   O1        1.0  0.19379  0.08615  0.21172  1.0000
  O   O2        1.0  0.80621  0.41385  0.71172  1.0000
  O   O3        1.0  0.80621  0.91385  0.78828  1.0000
  O   O4        1.0  0.19379  0.58615  0.28828  1.0000
  O   O5        1.0  0.70116  0.32270  0.20588  1.0000
  O   O6        1.0  0.29884  0.17730  0.70588  1.0000
  O   O7        1.0  0.29884  0.67730  0.79412  1.0000
  O   O8        1.0  0.70116  0.82270  0.29412  1.0000
  O   O9        1.0  0.30093  0.42299  0.12906  1.0000
  O   O10       1.0  0.69908  0.07701  0.62906  1.0000
  O   O11       1.0  0.69907  0.57701  0.87094  1.0000
  O   O12       1.0  0.30092  0.92299  0.37094  1.0000
