data_image0
_chemical_formula_structural       Hg4H32C28N8Cl8O4
_chemical_formula_sum              "Hg4 H32 C28 N8 Cl8 O4"
_cell_length_a       7.3943
_cell_length_b       11.3269
_cell_length_c       12.2188
_cell_angle_alpha    89.999
_cell_angle_beta     90.0019
_cell_angle_gamma    99.6214

_space_group_name_H-M_alt    "P 1"
_space_group_IT_number       1

loop_
  _space_group_symop_operation_xyz
  'x, y, z'

loop_
  _atom_site_type_symbol
  _atom_site_label
  _atom_site_symmetry_multiplicity
  _atom_site_fract_x
  _atom_site_fract_y
  _atom_site_fract_z
  _atom_site_occupancy
  Hg  Hg1       1.0  0.55435  0.05146  0.33324  1.0000
  Hg  Hg2       1.0  0.94565  0.94855  0.83324  1.0000
  Hg  Hg3       1.0  0.44564  0.94855  0.66675  1.0000
  Hg  Hg4       1.0  0.05437  0.05146  0.16676  1.0000
  H   H1        1.0  0.48314  0.39903  0.03018  1.0000
  H   H2        1.0  0.01688  0.60097  0.53020  1.0000
  H   H3        1.0  0.51688  0.60097  0.96981  1.0000
  H   H4        1.0  0.98311  0.39902  0.46981  1.0000
  H   H5        1.0  0.39958  0.35330  0.33648  1.0000
  H   H6        1.0  0.10038  0.64668  0.83650  1.0000
  H   H7        1.0  0.60038  0.64670  0.66351  1.0000
  H   H8        1.0  0.89963  0.35332  0.16350  1.0000
  H   H9        1.0  0.32572  0.52019  0.45443  1.0000
  H   H10       1.0  0.17422  0.47975  0.95444  1.0000
  H   H11       1.0  0.67427  0.47980  0.54557  1.0000
  H   H12       1.0  0.82580  0.52025  0.04557  1.0000
  H   H13       1.0  0.25105  0.70547  0.36201  1.0000
  H   H14       1.0  0.24892  0.29450  0.86201  1.0000
  H   H15       1.0  0.74897  0.29454  0.63799  1.0000
  H   H16       1.0  0.75107  0.70550  0.13799  1.0000
  H   H17       1.0  0.25310  0.71538  0.15942  1.0000
  H   H18       1.0  0.24693  0.28463  0.65942  1.0000
  H   H19       1.0  0.74692  0.28464  0.84058  1.0000
  H   H20       1.0  0.75309  0.71537  0.34058  1.0000
  H   H21       1.0  0.43452  0.09998  0.03487  1.0000
  H   H22       1.0  0.06549  0.90002  0.53489  1.0000
  H   H23       1.0  0.56550  0.90003  0.96512  1.0000
  H   H24       1.0  0.93445  0.09997  0.46512  1.0000
  H   H25       1.0  0.55605  0.23477  0.97430  1.0000
  H   H26       1.0  0.94396  0.76523  0.47432  1.0000
  H   H27       1.0  0.44398  0.76524  0.02569  1.0000
  H   H28       1.0  0.05599  0.23475  0.52570  1.0000
  H   H29       1.0  0.65693  0.16431  0.08486  1.0000
  H   H30       1.0  0.84307  0.83568  0.58487  1.0000
  H   H31       1.0  0.34308  0.83570  0.91514  1.0000
  H   H32       1.0  0.15690  0.16429  0.41516  1.0000
  C   C1        1.0  0.43417  0.36647  0.11068  1.0000
  C   C2        1.0  0.06585  0.63352  0.61069  1.0000
  C   C3        1.0  0.56584  0.63353  0.88931  1.0000
  C   C4        1.0  0.93415  0.36647  0.38931  1.0000
  C   C5        1.0  0.37329  0.45033  0.18633  1.0000
  C   C6        1.0  0.12670  0.54966  0.68635  1.0000
  C   C7        1.0  0.62670  0.54968  0.81365  1.0000
  C   C8        1.0  0.87329  0.45033  0.31365  1.0000
  C   C9        1.0  0.36829  0.43539  0.30060  1.0000
  C   C10       1.0  0.13171  0.56459  0.80062  1.0000
  C   C11       1.0  0.63169  0.56462  0.69939  1.0000
  C   C12       1.0  0.86832  0.43540  0.19938  1.0000
  C   C13       1.0  0.32772  0.52868  0.36541  1.0000
  C   C14       1.0  0.17224  0.47128  0.86541  1.0000
  C   C15       1.0  0.67226  0.47132  0.63458  1.0000
  C   C16       1.0  0.82778  0.52870  0.13458  1.0000
  C   C17       1.0  0.28508  0.63074  0.31482  1.0000
  C   C18       1.0  0.21492  0.36923  0.81482  1.0000
  C   C19       1.0  0.71493  0.36927  0.68518  1.0000
  C   C20       1.0  0.78510  0.63076  0.18519  1.0000
  C   C21       1.0  0.28857  0.63672  0.20059  1.0000
  C   C22       1.0  0.21144  0.36328  0.70059  1.0000
  C   C23       1.0  0.71144  0.36330  0.79941  1.0000
  C   C24       1.0  0.78856  0.63671  0.29942  1.0000
  C   C25       1.0  0.52845  0.18382  0.05004  1.0000
  C   C26       1.0  0.97156  0.81617  0.55007  1.0000
  C   C27       1.0  0.47157  0.81618  0.94995  1.0000
  C   C28       1.0  0.02839  0.18382  0.44995  1.0000
  N   N1        1.0  0.44389  0.25394  0.13014  1.0000
  N   N2        1.0  0.05611  0.74605  0.63016  1.0000
  N   N3        1.0  0.55611  0.74606  0.86985  1.0000
  N   N4        1.0  0.94389  0.25393  0.36985  1.0000
  N   N5        1.0  0.33552  0.55090  0.13680  1.0000
  N   N6        1.0  0.16451  0.44910  0.63680  1.0000
  N   N7        1.0  0.66450  0.44912  0.86321  1.0000
  N   N8        1.0  0.83550  0.55090  0.36321  1.0000
  Cl  Cl1       1.0  0.50602  0.16839  0.48697  1.0000
  Cl  Cl2       1.0  0.99397  0.83162  0.98698  1.0000
  Cl  Cl3       1.0  0.49396  0.83162  0.51302  1.0000
  Cl  Cl4       1.0  0.00603  0.16838  0.01302  1.0000
  Cl  Cl5       1.0  0.64818  0.92352  0.20060  1.0000
  Cl  Cl6       1.0  0.85182  0.07649  0.70060  1.0000
  Cl  Cl7       1.0  0.35181  0.07649  0.79940  1.0000
  Cl  Cl8       1.0  0.14819  0.92352  0.29942  1.0000
  O   O1        1.0  0.38205  0.19666  0.21919  1.0000
  O   O2        1.0  0.11795  0.80332  0.71921  1.0000
  O   O3        1.0  0.61795  0.80334  0.78080  1.0000
  O   O4        1.0  0.88206  0.19668  0.28079  1.0000
