data_image0
_chemical_formula_structural       Cu6H32C24Br6N8
_chemical_formula_sum              "Cu6 H32 C24 Br6 N8"
_cell_length_a       7.08208
_cell_length_b       9.77719
_cell_length_c       12.809
_cell_angle_alpha    83.2912
_cell_angle_beta     84.1474
_cell_angle_gamma    80.6533

_space_group_name_H-M_alt    "P 1"
_space_group_IT_number       1

loop_
  _space_group_symop_operation_xyz
  'x, y, z'

loop_
  _atom_site_type_symbol
  _atom_site_label
  _atom_site_symmetry_multiplicity
  _atom_site_fract_x
  _atom_site_fract_y
  _atom_site_fract_z
  _atom_site_occupancy
  Cu  Cu1       1.0  0.24720  0.42631  0.26743  1.0000
  Cu  Cu2       1.0  0.75279  0.57369  0.73257  1.0000
  Cu  Cu3       1.0  0.23488  0.75547  0.31918  1.0000
  Cu  Cu4       1.0  0.76514  0.24452  0.68081  1.0000
  Cu  Cu5       1.0  0.13652  0.77327  0.13669  1.0000
  Cu  Cu6       1.0  0.86348  0.22673  0.86331  1.0000
  H   H1        1.0  0.61321  0.47631  0.32636  1.0000
  H   H2        1.0  0.38679  0.52369  0.67364  1.0000
  H   H3        1.0  0.80577  0.40699  0.48223  1.0000
  H   H4        1.0  0.19423  0.59301  0.51777  1.0000
  H   H5        1.0  0.87224  0.48428  0.17882  1.0000
  H   H6        1.0  0.12775  0.51572  0.82118  1.0000
  H   H7        1.0  0.72875  0.40797  0.02799  1.0000
  H   H8        1.0  0.27124  0.59203  0.97201  1.0000
  H   H9        1.0  0.52481  0.07479  0.68691  1.0000
  H   H10       1.0  0.47520  0.92522  0.31309  1.0000
  H   H11       1.0  0.38395  0.00826  0.60128  1.0000
  H   H12       1.0  0.61606  0.99173  0.39873  1.0000
  H   H13       1.0  0.27761  0.14540  0.67627  1.0000
  H   H14       1.0  0.72240  0.85460  0.32374  1.0000
  H   H15       1.0  0.09089  0.18432  0.51932  1.0000
  H   H16       1.0  0.90911  0.81568  0.48068  1.0000
  H   H17       1.0  0.23008  0.07050  0.43282  1.0000
  H   H18       1.0  0.76992  0.92950  0.56719  1.0000
  H   H19       1.0  0.11145  0.23434  0.38004  1.0000
  H   H20       1.0  0.88855  0.76566  0.61996  1.0000
  H   H21       1.0  0.17910  0.07817  0.88908  1.0000
  H   H22       1.0  0.82090  0.92183  0.11092  1.0000
  H   H23       1.0  0.31378  0.01424  0.00001  1.0000
  H   H24       1.0  0.68622  0.98576  0.99999  1.0000
  H   H25       1.0  0.39699  0.14194  0.90296  1.0000
  H   H26       1.0  0.60301  0.85806  0.09704  1.0000
  H   H27       1.0  0.49052  0.27079  0.16834  1.0000
  H   H28       1.0  0.50948  0.72922  0.83166  1.0000
  H   H29       1.0  0.53850  0.20758  0.04116  1.0000
  H   H30       1.0  0.46150  0.79243  0.95884  1.0000
  H   H31       1.0  0.44785  0.10040  0.15056  1.0000
  H   H32       1.0  0.55215  0.89961  0.84943  1.0000
  C   C1        1.0  0.57294  0.39809  0.38877  1.0000
  C   C2        1.0  0.42706  0.60190  0.61123  1.0000
  C   C3        1.0  0.67869  0.36013  0.47480  1.0000
  C   C4        1.0  0.32132  0.63987  0.52520  1.0000
  C   C5        1.0  0.46913  0.20774  0.54561  1.0000
  C   C6        1.0  0.53087  0.79226  0.45440  1.0000
  C   C7        1.0  0.36076  0.24661  0.45722  1.0000
  C   C8        1.0  0.63924  0.75339  0.54278  1.0000
  C   C9        1.0  0.95352  0.40758  0.12958  1.0000
  C   C10       1.0  0.04647  0.59242  0.87042  1.0000
  C   C11       1.0  0.87456  0.36503  0.04712  1.0000
  C   C12       1.0  0.12543  0.63497  0.95288  1.0000
  C   C13       1.0  0.15766  0.21803  0.00761  1.0000
  C   C14       1.0  0.84234  0.78197  0.99239  1.0000
  C   C15       1.0  0.24020  0.26518  0.09009  1.0000
  C   C16       1.0  0.75980  0.73483  0.90991  1.0000
  C   C17       1.0  0.41170  0.10272  0.63218  1.0000
  C   C18       1.0  0.58830  0.89728  0.36783  1.0000
  C   C19       1.0  0.18860  0.18075  0.44694  1.0000
  C   C20       1.0  0.81140  0.81925  0.55306  1.0000
  C   C21       1.0  0.26794  0.10692  0.94595  1.0000
  C   C22       1.0  0.73206  0.89309  0.05405  1.0000
  C   C23       1.0  0.44130  0.20836  0.11365  1.0000
  C   C24       1.0  0.55870  0.79165  0.88635  1.0000
  Br  Br1       1.0  0.97967  0.60100  0.33669  1.0000
  Br  Br2       1.0  0.02032  0.39900  0.66331  1.0000
  Br  Br3       1.0  0.09320  0.97732  0.22994  1.0000
  Br  Br4       1.0  0.90683  0.02268  0.77005  1.0000
  Br  Br5       1.0  0.44775  0.61768  0.16330  1.0000
  Br  Br6       1.0  0.55225  0.38231  0.83670  1.0000
  N   N1        1.0  0.41085  0.34475  0.37984  1.0000
  N   N2        1.0  0.58915  0.65525  0.62016  1.0000
  N   N3        1.0  0.62582  0.26738  0.55505  1.0000
  N   N4        1.0  0.37419  0.73261  0.44495  1.0000
  N   N5        1.0  0.13737  0.35987  0.15090  1.0000
  N   N6        1.0  0.86263  0.64013  0.84910  1.0000
  N   N7        1.0  0.97593  0.27096  0.98491  1.0000
  N   N8        1.0  0.02407  0.72904  0.01509  1.0000
