data_image0
_chemical_formula_structural       Cu2H16C12Br4N4
_chemical_formula_sum              "Cu2 H16 C12 Br4 N4"
_cell_length_a       6.87482
_cell_length_b       7.47167
_cell_length_c       9.72392
_cell_angle_alpha    104.248
_cell_angle_beta     89.9978
_cell_angle_gamma    117.329

_space_group_name_H-M_alt    "P 1"
_space_group_IT_number       1

loop_
  _space_group_symop_operation_xyz
  'x, y, z'

loop_
  _atom_site_type_symbol
  _atom_site_label
  _atom_site_symmetry_multiplicity
  _atom_site_fract_x
  _atom_site_fract_y
  _atom_site_fract_z
  _atom_site_occupancy
  Cu  Cu1       1.0  0.46248  0.92492  0.17625  1.0000
  Cu  Cu2       1.0  0.53752  0.07508  0.82374  1.0000
  H   H1        1.0  0.66196  0.68613  0.00381  1.0000
  H   H2        1.0  0.97484  0.31366  0.99622  1.0000
  H   H3        1.0  0.33805  0.31388  0.99619  1.0000
  H   H4        1.0  0.02517  0.68634  0.00377  1.0000
  H   H5        1.0  0.96751  0.23257  0.52237  1.0000
  H   H6        1.0  0.73568  0.76693  0.47769  1.0000
  H   H7        1.0  0.03250  0.76743  0.47763  1.0000
  H   H8        1.0  0.26432  0.23307  0.52232  1.0000
  H   H9        1.0  0.71385  0.15441  0.42112  1.0000
  H   H10       1.0  0.55970  0.84482  0.57875  1.0000
  H   H11       1.0  0.28615  0.84560  0.57889  1.0000
  H   H12       1.0  0.44031  0.15518  0.42126  1.0000
  H   H13       1.0  0.96069  0.36514  0.39594  1.0000
  H   H14       1.0  0.59675  0.63447  0.60414  1.0000
  H   H15       1.0  0.03932  0.63487  0.60405  1.0000
  H   H16       1.0  0.40325  0.36552  0.39586  1.0000
  C   C1        1.0  0.79693  0.79453  0.08912  1.0000
  C   C2        1.0  0.00173  0.20535  0.91089  1.0000
  C   C3        1.0  0.20306  0.20548  0.91090  1.0000
  C   C4        1.0  0.99827  0.79465  0.08911  1.0000
  C   C5        1.0  0.92799  0.06270  0.30032  1.0000
  C   C6        1.0  0.86551  0.93710  0.69967  1.0000
  C   C7        1.0  0.07201  0.93731  0.69969  1.0000
  C   C8        1.0  0.13448  0.06289  0.30032  1.0000
  C   C9        1.0  0.89047  0.21052  0.41669  1.0000
  C   C10       1.0  0.68057  0.78905  0.58332  1.0000
  C   C11       1.0  0.10954  0.78949  0.58331  1.0000
  C   C12       1.0  0.31941  0.21093  0.41668  1.0000
  Br  Br1       1.0  0.63526  0.27070  0.12989  1.0000
  Br  Br2       1.0  0.36473  0.72928  0.87011  1.0000
  Br  Br3       1.0  0.30492  0.60944  0.25490  1.0000
  Br  Br4       1.0  0.69509  0.39056  0.74509  1.0000
  N   N1        1.0  0.76343  0.93043  0.19247  1.0000
  N   N2        1.0  0.83270  0.06929  0.80752  1.0000
  N   N3        1.0  0.23657  0.06958  0.80753  1.0000
  N   N4        1.0  0.16730  0.93072  0.19248  1.0000
