data_image0
_chemical_formula_structural       Zn4P4H32C28N8O12
_chemical_formula_sum              "Zn4 P4 H32 C28 N8 O12"
_cell_length_a       8.83167
_cell_length_b       9.97057
_cell_length_c       11.2534
_cell_angle_alpha    110.087
_cell_angle_beta     90
_cell_angle_gamma    90

_space_group_name_H-M_alt    "P 1"
_space_group_IT_number       1

loop_
  _space_group_symop_operation_xyz
  'x, y, z'

loop_
  _atom_site_type_symbol
  _atom_site_label
  _atom_site_symmetry_multiplicity
  _atom_site_fract_x
  _atom_site_fract_y
  _atom_site_fract_z
  _atom_site_occupancy
  Zn  Zn1       1.0  0.70116  0.06475  0.45757  1.0000
  Zn  Zn2       1.0  0.20116  0.43525  0.54243  1.0000
  Zn  Zn3       1.0  0.29884  0.93525  0.54243  1.0000
  Zn  Zn4       1.0  0.79884  0.56475  0.45757  1.0000
  P   P1        1.0  0.56118  0.75896  0.36842  1.0000
  P   P2        1.0  0.06118  0.74104  0.63158  1.0000
  P   P3        1.0  0.43882  0.24104  0.63158  1.0000
  P   P4        1.0  0.93882  0.25896  0.36842  1.0000
  H   H1        1.0  0.44928  0.70871  0.27396  1.0000
  H   H2        1.0  0.94928  0.79129  0.72604  1.0000
  H   H3        1.0  0.55072  0.29128  0.72604  1.0000
  H   H4        1.0  0.05072  0.20871  0.27396  1.0000
  H   H5        1.0  0.00297  0.17811  0.61872  1.0000
  H   H6        1.0  0.50297  0.32189  0.38128  1.0000
  H   H7        1.0  0.99703  0.82189  0.38128  1.0000
  H   H8        1.0  0.49703  0.67811  0.61872  1.0000
  H   H9        1.0  0.62038  0.96572  0.69388  1.0000
  H   H10       1.0  0.12038  0.53428  0.30611  1.0000
  H   H11       1.0  0.37962  0.03427  0.30612  1.0000
  H   H12       1.0  0.87962  0.46572  0.69388  1.0000
  H   H13       1.0  0.80578  0.05011  0.90714  1.0000
  H   H14       1.0  0.30578  0.44989  0.09286  1.0000
  H   H15       1.0  0.19422  0.94989  0.09286  1.0000
  H   H16       1.0  0.69422  0.55011  0.90714  1.0000
  H   H17       1.0  0.17000  0.18295  0.81161  1.0000
  H   H18       1.0  0.67000  0.31705  0.18839  1.0000
  H   H19       1.0  0.83000  0.81705  0.18839  1.0000
  H   H20       1.0  0.33000  0.68295  0.81161  1.0000
  H   H21       1.0  0.08337  0.14053  0.93707  1.0000
  H   H22       1.0  0.58337  0.35946  0.06293  1.0000
  H   H23       1.0  0.91663  0.85947  0.06293  1.0000
  H   H24       1.0  0.41663  0.64053  0.93707  1.0000
  H   H25       1.0  0.16162  0.42616  0.80704  1.0000
  H   H26       1.0  0.66162  0.07384  0.19296  1.0000
  H   H27       1.0  0.83838  0.57384  0.19296  1.0000
  H   H28       1.0  0.33838  0.92616  0.80704  1.0000
  H   H29       1.0  0.90543  0.32050  0.08980  1.0000
  H   H30       1.0  0.40543  0.17950  0.91020  1.0000
  H   H31       1.0  0.09457  0.67950  0.91020  1.0000
  H   H32       1.0  0.59457  0.82050  0.08980  1.0000
  C   C1        1.0  0.92496  0.12963  0.66692  1.0000
  C   C2        1.0  0.42496  0.37037  0.33308  1.0000
  C   C3        1.0  0.07504  0.87037  0.33308  1.0000
  C   C4        1.0  0.57504  0.62963  0.66692  1.0000
  C   C5        1.0  0.72750  0.02197  0.71066  1.0000
  C   C6        1.0  0.22750  0.47803  0.28934  1.0000
  C   C7        1.0  0.27250  0.97803  0.28934  1.0000
  C   C8        1.0  0.77250  0.52197  0.71066  1.0000
  C   C9        1.0  0.81847  0.06290  0.81590  1.0000
  C   C10       1.0  0.31847  0.43710  0.18410  1.0000
  C   C11       1.0  0.18153  0.93710  0.18410  1.0000
  C   C12       1.0  0.68153  0.56290  0.81590  1.0000
  C   C13       1.0  0.06800  0.19838  0.87067  1.0000
  C   C14       1.0  0.56800  0.30161  0.12933  1.0000
  C   C15       1.0  0.93200  0.80161  0.12933  1.0000
  C   C16       1.0  0.43200  0.69838  0.87067  1.0000
  C   C17       1.0  0.03581  0.35483  0.93962  1.0000
  C   C18       1.0  0.53581  0.14517  0.06038  1.0000
  C   C19       1.0  0.96419  0.64517  0.06038  1.0000
  C   C20       1.0  0.46419  0.85483  0.93962  1.0000
  C   C21       1.0  0.09049  0.45798  0.89159  1.0000
  C   C22       1.0  0.59049  0.04202  0.10841  1.0000
  C   C23       1.0  0.90951  0.54202  0.10841  1.0000
  C   C24       1.0  0.40951  0.95798  0.89159  1.0000
  C   C25       1.0  0.94568  0.39827  0.04854  1.0000
  C   C26       1.0  0.44568  0.10173  0.95146  1.0000
  C   C27       1.0  0.05432  0.60173  0.95146  1.0000
  C   C28       1.0  0.55432  0.89827  0.04855  1.0000
  N   N1        1.0  0.79523  0.06463  0.61866  1.0000
  N   N2        1.0  0.29524  0.43537  0.38134  1.0000
  N   N3        1.0  0.20476  0.93537  0.38134  1.0000
  N   N4        1.0  0.70476  0.56463  0.61866  1.0000
  N   N5        1.0  0.94247  0.12996  0.78627  1.0000
  N   N6        1.0  0.44247  0.37004  0.21373  1.0000
  N   N7        1.0  0.05753  0.87004  0.21373  1.0000
  N   N8        1.0  0.55753  0.62996  0.78627  1.0000
  O   O1        1.0  0.64429  0.87824  0.33665  1.0000
  O   O2        1.0  0.14428  0.62176  0.66335  1.0000
  O   O3        1.0  0.35571  0.12176  0.66335  1.0000
  O   O4        1.0  0.85571  0.37824  0.33665  1.0000
  O   O5        1.0  0.66260  0.62934  0.35264  1.0000
  O   O6        1.0  0.16260  0.87066  0.64736  1.0000
  O   O7        1.0  0.33740  0.37066  0.64736  1.0000
  O   O8        1.0  0.83740  0.12934  0.35264  1.0000
  O   O9        1.0  0.48105  0.81256  0.49811  1.0000
  O   O10       1.0  0.98105  0.68744  0.50189  1.0000
  O   O11       1.0  0.51895  0.18744  0.50189  1.0000
  O   O12       1.0  0.01895  0.31256  0.49811  1.0000
