data_image0
_chemical_formula_structural       Zn4P4H28C16N8O12
_chemical_formula_sum              "Zn4 P4 H28 C16 N8 O12"
_cell_length_a       5.21213
_cell_length_b       9.5704
_cell_length_c       14.7246
_cell_angle_alpha    90.0012
_cell_angle_beta     89.9995
_cell_angle_gamma    90.001

_space_group_name_H-M_alt    "P 1"
_space_group_IT_number       1

loop_
  _space_group_symop_operation_xyz
  'x, y, z'

loop_
  _atom_site_type_symbol
  _atom_site_label
  _atom_site_symmetry_multiplicity
  _atom_site_fract_x
  _atom_site_fract_y
  _atom_site_fract_z
  _atom_site_occupancy
  Zn  Zn1       1.0  0.43528  0.60862  0.92689  1.0000
  Zn  Zn2       1.0  0.06476  0.39138  0.42688  1.0000
  Zn  Zn3       1.0  0.56478  0.10864  0.57312  1.0000
  Zn  Zn4       1.0  0.93523  0.89136  0.07313  1.0000
  P   P1        1.0  0.43975  0.73360  0.12796  1.0000
  P   P2        1.0  0.06026  0.26639  0.62795  1.0000
  P   P3        1.0  0.56026  0.23360  0.37205  1.0000
  P   P4        1.0  0.93979  0.76640  0.87206  1.0000
  H   H1        1.0  0.34949  0.67842  0.21098  1.0000
  H   H2        1.0  0.15050  0.32158  0.71097  1.0000
  H   H3        1.0  0.65049  0.17844  0.28902  1.0000
  H   H4        1.0  0.84959  0.82155  0.78903  1.0000
  H   H5        1.0  0.63017  0.08688  0.77442  1.0000
  H   H6        1.0  0.86979  0.91312  0.27445  1.0000
  H   H7        1.0  0.36982  0.58688  0.72557  1.0000
  H   H8        1.0  0.13021  0.41313  0.22555  1.0000
  H   H9        1.0  0.31354  0.01685  0.77098  1.0000
  H   H10       1.0  0.18640  0.98314  0.27098  1.0000
  H   H11       1.0  0.68645  0.51685  0.72902  1.0000
  H   H12       1.0  0.81355  0.48316  0.22903  1.0000
  H   H13       1.0  0.51236  0.98505  0.86801  1.0000
  H   H14       1.0  0.98762  0.01495  0.36801  1.0000
  H   H15       1.0  0.48762  0.48506  0.63199  1.0000
  H   H16       1.0  0.01234  0.51496  0.13198  1.0000
  H   H17       1.0  0.66754  0.33184  0.82334  1.0000
  H   H18       1.0  0.83240  0.66817  0.32335  1.0000
  H   H19       1.0  0.33243  0.83184  0.67665  1.0000
  H   H20       1.0  0.16759  0.16818  0.17666  1.0000
  H   H21       1.0  0.96996  0.39700  0.96269  1.0000
  H   H22       1.0  0.52999  0.60300  0.46270  1.0000
  H   H23       1.0  0.03002  0.89699  0.53730  1.0000
  H   H24       1.0  0.47002  0.10298  0.03731  1.0000
  H   H25       1.0  0.00701  0.11457  0.91115  1.0000
  H   H26       1.0  0.49297  0.88544  0.41116  1.0000
  H   H27       1.0  0.99298  0.61457  0.58884  1.0000
  H   H28       1.0  0.50703  0.38542  0.08884  1.0000
  C   C1        1.0  0.46138  0.06079  0.81528  1.0000
  C   C2        1.0  0.03859  0.93920  0.31529  1.0000
  C   C3        1.0  0.53862  0.56080  0.68471  1.0000
  C   C4        1.0  0.96139  0.43922  0.18472  1.0000
  C   C5        1.0  0.48288  0.31424  0.85510  1.0000
  C   C6        1.0  0.01706  0.68574  0.35512  1.0000
  C   C7        1.0  0.51708  0.81426  0.64488  1.0000
  C   C8        1.0  0.98292  0.18574  0.14488  1.0000
  C   C9        1.0  0.12043  0.34124  0.92723  1.0000
  C   C10       1.0  0.37954  0.65878  0.42723  1.0000
  C   C11       1.0  0.87956  0.84123  0.57277  1.0000
  C   C12       1.0  0.62047  0.15877  0.07277  1.0000
  C   C13       1.0  0.13375  0.20337  0.90121  1.0000
  C   C14       1.0  0.36621  0.79664  0.40122  1.0000
  C   C15       1.0  0.86624  0.70336  0.59878  1.0000
  C   C16       1.0  0.63377  0.29664  0.09878  1.0000
  N   N1        1.0  0.33959  0.40925  0.89811  1.0000
  N   N2        1.0  0.16039  0.59074  0.39812  1.0000
  N   N3        1.0  0.66041  0.90926  0.60187  1.0000
  N   N4        1.0  0.83960  0.09074  0.10188  1.0000
  N   N5        1.0  0.36411  0.18887  0.85580  1.0000
  N   N6        1.0  0.13584  0.81112  0.35580  1.0000
  N   N7        1.0  0.63585  0.68888  0.64420  1.0000
  N   N8        1.0  0.86418  0.31113  0.14420  1.0000
  O   O1        1.0  0.38216  0.61742  0.05858  1.0000
  O   O2        1.0  0.11791  0.38256  0.55858  1.0000
  O   O3        1.0  0.61786  0.11740  0.44142  1.0000
  O   O4        1.0  0.88213  0.88258  0.94143  1.0000
  O   O5        1.0  0.29486  0.87082  0.10919  1.0000
  O   O6        1.0  0.20515  0.12917  0.60918  1.0000
  O   O7        1.0  0.70509  0.37085  0.39082  1.0000
  O   O8        1.0  0.79493  0.62915  0.89082  1.0000
  O   O9        1.0  0.72742  0.75995  0.14391  1.0000
  O   O10       1.0  0.77257  0.24005  0.64389  1.0000
  O   O11       1.0  0.27259  0.25994  0.35609  1.0000
  O   O12       1.0  0.22747  0.74007  0.85612  1.0000
