data_image0
_chemical_formula_structural       Ag4H8C24N16Cl4O16
_chemical_formula_sum              "Ag4 H8 C24 N16 Cl4 O16"
_cell_length_a       6.82695
_cell_length_b       10.8458
_cell_length_c       12.4465
_cell_angle_alpha    89.9992
_cell_angle_beta     89.9993
_cell_angle_gamma    89.9993

_space_group_name_H-M_alt    "P 1"
_space_group_IT_number       1

loop_
  _space_group_symop_operation_xyz
  'x, y, z'

loop_
  _atom_site_type_symbol
  _atom_site_label
  _atom_site_symmetry_multiplicity
  _atom_site_fract_x
  _atom_site_fract_y
  _atom_site_fract_z
  _atom_site_occupancy
  Ag  Ag1       1.0  0.87031  0.25000  0.09215  1.0000
  Ag  Ag2       1.0  0.37032  0.25000  0.40784  1.0000
  Ag  Ag3       1.0  0.12969  0.75000  0.90784  1.0000
  Ag  Ag4       1.0  0.62969  0.75000  0.59215  1.0000
  H   H1        1.0  0.72802  0.09732  0.87429  1.0000
  H   H2        1.0  0.22802  0.40267  0.62570  1.0000
  H   H3        1.0  0.27198  0.59733  0.12571  1.0000
  H   H4        1.0  0.77199  0.90267  0.37430  1.0000
  H   H5        1.0  0.27198  0.90266  0.12570  1.0000
  H   H6        1.0  0.77198  0.59733  0.37430  1.0000
  H   H7        1.0  0.72802  0.40266  0.87430  1.0000
  H   H8        1.0  0.22802  0.09733  0.62570  1.0000
  C   C1        1.0  0.51628  0.07493  0.21114  1.0000
  C   C2        1.0  0.01630  0.42507  0.28885  1.0000
  C   C3        1.0  0.48371  0.57494  0.78886  1.0000
  C   C4        1.0  0.98371  0.92507  0.71115  1.0000
  C   C5        1.0  0.48370  0.92507  0.78885  1.0000
  C   C6        1.0  0.98371  0.57493  0.71115  1.0000
  C   C7        1.0  0.51630  0.42506  0.21115  1.0000
  C   C8        1.0  0.01628  0.07494  0.28885  1.0000
  C   C9        1.0  0.50815  0.03602  0.10190  1.0000
  C   C10       1.0  0.00816  0.46398  0.39810  1.0000
  C   C11       1.0  0.49185  0.53602  0.89811  1.0000
  C   C12       1.0  0.99184  0.96398  0.60190  1.0000
  C   C13       1.0  0.49183  0.96398  0.89810  1.0000
  C   C14       1.0  0.99185  0.53602  0.60190  1.0000
  C   C15       1.0  0.50816  0.46398  0.10190  1.0000
  C   C16       1.0  0.00816  0.03603  0.39811  1.0000
  C   C17       1.0  0.62774  0.05387  0.93094  1.0000
  C   C18       1.0  0.12774  0.44613  0.56906  1.0000
  C   C19       1.0  0.37226  0.55386  0.06906  1.0000
  C   C20       1.0  0.87226  0.94613  0.43095  1.0000
  C   C21       1.0  0.37224  0.94612  0.06906  1.0000
  C   C22       1.0  0.87226  0.55387  0.43094  1.0000
  C   C23       1.0  0.62774  0.44613  0.93094  1.0000
  C   C24       1.0  0.12775  0.05388  0.56906  1.0000
  N   N1        1.0  0.52336  0.10775  0.30040  1.0000
  N   N2        1.0  0.02338  0.39225  0.19960  1.0000
  N   N3        1.0  0.47663  0.60775  0.69960  1.0000
  N   N4        1.0  0.97663  0.89225  0.80040  1.0000
  N   N5        1.0  0.47664  0.89225  0.69960  1.0000
  N   N6        1.0  0.97663  0.60775  0.80040  1.0000
  N   N7        1.0  0.52338  0.39225  0.30040  1.0000
  N   N8        1.0  0.02337  0.10776  0.19960  1.0000
  N   N9        1.0  0.63512  0.08966  0.03321  1.0000
  N   N10       1.0  0.13513  0.41033  0.46679  1.0000
  N   N11       1.0  0.36487  0.58967  0.96680  1.0000
  N   N12       1.0  0.86487  0.91033  0.53321  1.0000
  N   N13       1.0  0.36485  0.91033  0.96679  1.0000
  N   N14       1.0  0.86487  0.58967  0.53321  1.0000
  N   N15       1.0  0.63513  0.41033  0.03321  1.0000
  N   N16       1.0  0.13513  0.08967  0.46679  1.0000
  Cl  Cl1       1.0  0.16840  0.25000  0.87237  1.0000
  Cl  Cl2       1.0  0.66841  0.25000  0.62763  1.0000
  Cl  Cl3       1.0  0.83160  0.75000  0.12763  1.0000
  Cl  Cl4       1.0  0.33160  0.75000  0.37237  1.0000
  O   O1        1.0  0.95708  0.25000  0.89842  1.0000
  O   O2        1.0  0.45708  0.25000  0.60158  1.0000
  O   O3        1.0  0.04293  0.75000  0.10158  1.0000
  O   O4        1.0  0.54291  0.75000  0.39841  1.0000
  O   O5        1.0  0.27961  0.25000  0.97274  1.0000
  O   O6        1.0  0.77961  0.25000  0.52726  1.0000
  O   O7        1.0  0.72038  0.75000  0.02726  1.0000
  O   O8        1.0  0.22040  0.75000  0.47274  1.0000
  O   O9        1.0  0.21361  0.36012  0.81053  1.0000
  O   O10       1.0  0.71361  0.13989  0.68947  1.0000
  O   O11       1.0  0.78639  0.86012  0.18947  1.0000
  O   O12       1.0  0.28639  0.63989  0.31053  1.0000
  O   O13       1.0  0.78639  0.63987  0.18947  1.0000
  O   O14       1.0  0.28639  0.86011  0.31054  1.0000
  O   O15       1.0  0.21361  0.13989  0.81053  1.0000
  O   O16       1.0  0.71361  0.36012  0.68947  1.0000
