data_image0
_chemical_formula_structural       Ni2H32C40N4O8
_chemical_formula_sum              "Ni2 H32 C40 N4 O8"
_cell_length_a       10.2886
_cell_length_b       9.47383
_cell_length_c       10.1172
_cell_angle_alpha    69.1358
_cell_angle_beta     79.0798
_cell_angle_gamma    83.9305

_space_group_name_H-M_alt    "P 1"
_space_group_IT_number       1

loop_
  _space_group_symop_operation_xyz
  'x, y, z'

loop_
  _atom_site_type_symbol
  _atom_site_label
  _atom_site_symmetry_multiplicity
  _atom_site_fract_x
  _atom_site_fract_y
  _atom_site_fract_z
  _atom_site_occupancy
  Ni  Ni1       1.0  0.36530  0.44327  0.86444  1.0000
  Ni  Ni2       1.0  0.63471  0.55673  0.13556  1.0000
  H   H1        1.0  0.51924  0.22913  0.07603  1.0000
  H   H2        1.0  0.48075  0.77085  0.92398  1.0000
  H   H3        1.0  0.69739  0.03078  0.07665  1.0000
  H   H4        1.0  0.30260  0.96921  0.92334  1.0000
  H   H5        1.0  0.69684  0.14377  0.62429  1.0000
  H   H6        1.0  0.30316  0.85622  0.37571  1.0000
  H   H7        1.0  0.51645  0.33463  0.64224  1.0000
  H   H8        1.0  0.48355  0.66538  0.35775  1.0000
  H   H9        1.0  0.80082  0.85298  0.95152  1.0000
  H   H10       1.0  0.19918  0.14701  0.04848  1.0000
  H   H11       1.0  0.80167  0.89828  0.76627  1.0000
  H   H12       1.0  0.19833  0.10171  0.23373  1.0000
  H   H13       1.0  0.97267  0.05511  0.88655  1.0000
  H   H14       1.0  0.02731  0.94488  0.11347  1.0000
  H   H15       1.0  0.97881  0.08051  0.70463  1.0000
  H   H16       1.0  0.02118  0.91950  0.29538  1.0000
  H   H17       1.0  0.96341  0.72290  0.03505  1.0000
  H   H18       1.0  0.03658  0.27709  0.96495  1.0000
  H   H19       1.0  0.12651  0.50943  0.04556  1.0000
  H   H20       1.0  0.87347  0.49056  0.95442  1.0000
  H   H21       1.0  0.34373  0.74328  0.65450  1.0000
  H   H22       1.0  0.65627  0.25674  0.34549  1.0000
  H   H23       1.0  0.18817  0.97092  0.62373  1.0000
  H   H24       1.0  0.81183  0.02910  0.37628  1.0000
  H   H25       1.0  0.00530  0.32728  0.66228  1.0000
  H   H26       1.0  0.99472  0.67270  0.33772  1.0000
  H   H27       1.0  0.93049  0.30066  0.45125  1.0000
  H   H28       1.0  0.06953  0.69930  0.54876  1.0000
  H   H29       1.0  0.09286  0.32360  0.22987  1.0000
  H   H30       1.0  0.90716  0.67640  0.77014  1.0000
  H   H31       1.0  0.39978  0.40863  0.42338  1.0000
  H   H32       1.0  0.60023  0.59138  0.57662  1.0000
  C   C1        1.0  0.55881  0.20427  0.97893  1.0000
  C   C2        1.0  0.44118  0.79572  0.02107  1.0000
  C   C3        1.0  0.66064  0.09598  0.97716  1.0000
  C   C4        1.0  0.33935  0.90401  0.02284  1.0000
  C   C5        1.0  0.71280  0.06792  0.85025  1.0000
  C   C6        1.0  0.28720  0.93208  0.14974  1.0000
  C   C7        1.0  0.66026  0.15769  0.72770  1.0000
  C   C8        1.0  0.33974  0.84231  0.27230  1.0000
  C   C9        1.0  0.55860  0.26434  0.73634  1.0000
  C   C10       1.0  0.44139  0.73566  0.26366  1.0000
  C   C11       1.0  0.81626  0.94470  0.84734  1.0000
  C   C12       1.0  0.18373  0.05530  0.15266  1.0000
  C   C13       1.0  0.95974  0.99698  0.81313  1.0000
  C   C14       1.0  0.04025  0.00302  0.18688  1.0000
  C   C15       1.0  0.06024  0.86712  0.82633  1.0000
  C   C16       1.0  0.93976  0.13288  0.17367  1.0000
  C   C17       1.0  0.04582  0.73485  0.94678  1.0000
  C   C18       1.0  0.95418  0.26515  0.05322  1.0000
  C   C19       1.0  0.13570  0.61370  0.95409  1.0000
  C   C20       1.0  0.86429  0.38630  0.04589  1.0000
  C   C21       1.0  0.25715  0.74461  0.73477  1.0000
  C   C22       1.0  0.74285  0.25541  0.26522  1.0000
  C   C23       1.0  0.17018  0.87042  0.71952  1.0000
  C   C24       1.0  0.82982  0.12959  0.28047  1.0000
  C   C25       1.0  0.24749  0.37749  0.68752  1.0000
  C   C26       1.0  0.75252  0.62251  0.31247  1.0000
  C   C27       1.0  0.20643  0.36938  0.55642  1.0000
  C   C28       1.0  0.79357  0.63063  0.44357  1.0000
  C   C29       1.0  0.07465  0.33757  0.56390  1.0000
  C   C30       1.0  0.92536  0.66243  0.43610  1.0000
  C   C31       1.0  0.03365  0.32252  0.44623  1.0000
  C   C32       1.0  0.96636  0.67747  0.55377  1.0000
  C   C33       1.0  0.12445  0.33692  0.32129  1.0000
  C   C34       1.0  0.87556  0.66307  0.67871  1.0000
  C   C35       1.0  0.25703  0.36673  0.31301  1.0000
  C   C36       1.0  0.74298  0.63327  0.68699  1.0000
  C   C37       1.0  0.29689  0.38471  0.43084  1.0000
  C   C38       1.0  0.70312  0.61529  0.56916  1.0000
  C   C39       1.0  0.35906  0.37796  0.18201  1.0000
  C   C40       1.0  0.64094  0.62205  0.81798  1.0000
  N   N1        1.0  0.50569  0.28708  0.86066  1.0000
  N   N2        1.0  0.49430  0.71292  0.13934  1.0000
  N   N3        1.0  0.23969  0.61670  0.85018  1.0000
  N   N4        1.0  0.76031  0.38331  0.14981  1.0000
  O   O1        1.0  0.34131  0.46810  0.66904  1.0000
  O   O2        1.0  0.65869  0.53190  0.33095  1.0000
  O   O3        1.0  0.19200  0.29630  0.80841  1.0000
  O   O4        1.0  0.80799  0.70372  0.19160  1.0000
  O   O5        1.0  0.47922  0.37832  0.19057  1.0000
  O   O6        1.0  0.52079  0.62169  0.80941  1.0000
  O   O7        1.0  0.31289  0.38211  0.07048  1.0000
  O   O8        1.0  0.68712  0.61790  0.92952  1.0000
