data_image0
_chemical_formula_structural       Ba4P4H8C4O20
_chemical_formula_sum              "Ba4 P4 H8 C4 O20"
_cell_length_a       7.40231
_cell_length_b       7.40155
_cell_length_c       11.0258
_cell_angle_alpha    93.8949
_cell_angle_beta     108.691
_cell_angle_gamma    114.939

_space_group_name_H-M_alt    "P 1"
_space_group_IT_number       1

loop_
  _space_group_symop_operation_xyz
  'x, y, z'

loop_
  _atom_site_type_symbol
  _atom_site_label
  _atom_site_symmetry_multiplicity
  _atom_site_fract_x
  _atom_site_fract_y
  _atom_site_fract_z
  _atom_site_occupancy
  Ba  Ba1       1.0  0.23347  0.99839  0.81671  1.0000
  Ba  Ba2       1.0  0.68167  0.41681  0.68332  1.0000
  Ba  Ba3       1.0  0.76653  0.00161  0.18329  1.0000
  Ba  Ba4       1.0  0.31833  0.58319  0.31668  1.0000
  P   P1        1.0  0.91266  0.69405  0.43948  1.0000
  P   P2        1.0  0.75465  0.47324  0.06059  1.0000
  P   P3        1.0  0.08734  0.30595  0.56052  1.0000
  P   P4        1.0  0.24535  0.52676  0.93941  1.0000
  H   H1        1.0  0.85113  0.49128  0.38185  1.0000
  H   H2        1.0  0.60966  0.46952  0.11829  1.0000
  H   H3        1.0  0.14887  0.50872  0.61815  1.0000
  H   H4        1.0  0.39034  0.53048  0.88171  1.0000
  H   H5        1.0  0.26901  0.88627  0.51321  1.0000
  H   H6        1.0  0.87301  0.75576  0.98678  1.0000
  H   H7        1.0  0.73099  0.11373  0.48679  1.0000
  H   H8        1.0  0.12699  0.24424  0.01322  1.0000
  C   C1        1.0  0.67065  0.86865  0.82380  1.0000
  C   C2        1.0  0.54503  0.84709  0.67616  1.0000
  C   C3        1.0  0.32935  0.13135  0.17620  1.0000
  C   C4        1.0  0.45497  0.15291  0.32384  1.0000
  O   O1        1.0  0.94617  0.71264  0.58388  1.0000
  O   O2        1.0  0.62868  0.36217  0.91621  1.0000
  O   O3        1.0  0.05382  0.28736  0.41611  1.0000
  O   O4        1.0  0.37132  0.63783  0.08379  1.0000
  O   O5        1.0  0.75140  0.75447  0.35394  1.0000
  O   O6        1.0  0.90059  0.39747  0.14611  1.0000
  O   O7        1.0  0.24860  0.24553  0.64606  1.0000
  O   O8        1.0  0.09941  0.60253  0.85389  1.0000
  O   O9        1.0  0.14000  0.81626  0.42446  1.0000
  O   O10       1.0  0.89200  0.71563  0.07557  1.0000
  O   O11       1.0  0.86000  0.18374  0.57554  1.0000
  O   O12       1.0  0.10800  0.28437  0.92443  1.0000
  O   O13       1.0  0.61222  0.92955  0.90632  1.0000
  O   O14       1.0  0.52378  0.70642  0.59356  1.0000
  O   O15       1.0  0.38778  0.07044  0.09367  1.0000
  O   O16       1.0  0.47622  0.29358  0.40644  1.0000
  O   O17       1.0  0.81737  0.81155  0.84909  1.0000
  O   O18       1.0  0.46258  0.96846  0.65093  1.0000
  O   O19       1.0  0.18264  0.18845  0.15091  1.0000
  O   O20       1.0  0.53742  0.03154  0.34907  1.0000
