data_image0
_chemical_formula_structural       Cd2H6C4Br4N6
_chemical_formula_sum              "Cd2 H6 C4 Br4 N6"
_cell_length_a       7.39786
_cell_length_b       7.55901
_cell_length_c       8.0391
_cell_angle_alpha    117.987
_cell_angle_beta     117.399
_cell_angle_gamma    90.0404

_space_group_name_H-M_alt    "P 1"
_space_group_IT_number       1

loop_
  _space_group_symop_operation_xyz
  'x, y, z'

loop_
  _atom_site_type_symbol
  _atom_site_label
  _atom_site_symmetry_multiplicity
  _atom_site_fract_x
  _atom_site_fract_y
  _atom_site_fract_z
  _atom_site_occupancy
  Cd  Cd1       1.0  0.50000  0.00000  0.50000  1.0000
  Cd  Cd2       1.0  0.00000  0.00000  0.50000  1.0000
  H   H1        1.0  0.67581  0.42542  0.35070  1.0000
  H   H2        1.0  0.32418  0.57458  0.64929  1.0000
  H   H3        1.0  0.83882  0.30192  0.10401  1.0000
  H   H4        1.0  0.26615  0.30220  0.10425  1.0000
  H   H5        1.0  0.16117  0.69808  0.89599  1.0000
  H   H6        1.0  0.73385  0.69780  0.89575  1.0000
  C   C1        1.0  0.67128  0.27348  0.04714  1.0000
  C   C2        1.0  0.37661  0.27365  0.04716  1.0000
  C   C3        1.0  0.32872  0.72652  0.95285  1.0000
  C   C4        1.0  0.62338  0.72635  0.95284  1.0000
  Br  Br1       1.0  0.17366  0.67459  0.34734  1.0000
  Br  Br2       1.0  0.17402  0.17303  0.34756  1.0000
  Br  Br3       1.0  0.82598  0.82697  0.65244  1.0000
  Br  Br4       1.0  0.82635  0.32540  0.65266  1.0000
  N   N1        1.0  0.51276  0.16963  0.83948  1.0000
  N   N2        1.0  0.32720  0.16973  0.83949  1.0000
  N   N3        1.0  0.48724  0.83037  0.16052  1.0000
  N   N4        1.0  0.67280  0.83027  0.16050  1.0000
  N   N5        1.0  0.59086  0.34043  0.18084  1.0000
  N   N6        1.0  0.40914  0.65957  0.81916  1.0000
