data_image0
_chemical_formula_structural       Cu2H28C28N8Cl2O4
_chemical_formula_sum              "Cu2 H28 C28 N8 Cl2 O4"
_cell_length_a       8.36026
_cell_length_b       9.0447
_cell_length_c       9.92415
_cell_angle_alpha    91.2868
_cell_angle_beta     92.7529
_cell_angle_gamma    106.765

_space_group_name_H-M_alt    "P 1"
_space_group_IT_number       1

loop_
  _space_group_symop_operation_xyz
  'x, y, z'

loop_
  _atom_site_type_symbol
  _atom_site_label
  _atom_site_symmetry_multiplicity
  _atom_site_fract_x
  _atom_site_fract_y
  _atom_site_fract_z
  _atom_site_occupancy
  Cu  Cu1       1.0  0.01089  0.06797  0.85771  1.0000
  Cu  Cu2       1.0  0.98911  0.93203  0.14229  1.0000
  H   H1        1.0  0.27525  0.13797  0.74749  1.0000
  H   H2        1.0  0.72475  0.86203  0.25252  1.0000
  H   H3        1.0  0.75499  0.10492  0.77196  1.0000
  H   H4        1.0  0.24501  0.89507  0.22804  1.0000
  H   H5        1.0  0.29268  0.81793  0.51589  1.0000
  H   H6        1.0  0.70732  0.18207  0.48411  1.0000
  H   H7        1.0  0.02705  0.62061  0.42873  1.0000
  H   H8        1.0  0.97295  0.37939  0.57127  1.0000
  H   H9        1.0  0.75975  0.83842  0.69130  1.0000
  H   H10       1.0  0.24025  0.16158  0.30870  1.0000
  H   H11       1.0  0.60362  0.62170  0.55548  1.0000
  H   H12       1.0  0.39638  0.37830  0.44452  1.0000
  H   H13       1.0  0.70998  0.48269  0.51972  1.0000
  H   H14       1.0  0.29002  0.51732  0.48028  1.0000
  H   H15       1.0  0.68061  0.60904  0.39337  1.0000
  H   H16       1.0  0.31939  0.39096  0.60663  1.0000
  H   H17       1.0  0.76611  0.51959  0.80574  1.0000
  H   H18       1.0  0.23389  0.48041  0.19426  1.0000
  H   H19       1.0  0.04008  0.72208  0.85217  1.0000
  H   H20       1.0  0.95992  0.27792  0.14783  1.0000
  H   H21       1.0  0.27293  0.35742  0.88881  1.0000
  H   H22       1.0  0.72707  0.64258  0.11119  1.0000
  H   H23       1.0  0.43734  0.63080  0.94885  1.0000
  H   H24       1.0  0.56266  0.36920  0.05114  1.0000
  H   H25       1.0  0.34323  0.78293  0.92851  1.0000
  H   H26       1.0  0.65677  0.21707  0.07149  1.0000
  H   H27       1.0  0.40957  0.70032  0.78683  1.0000
  H   H28       1.0  0.59043  0.29968  0.21317  1.0000
  C   C1        1.0  0.46566  0.05631  0.69699  1.0000
  C   C2        1.0  0.53434  0.94369  0.30300  1.0000
  C   C3        1.0  0.57568  0.21381  0.75633  1.0000
  C   C4        1.0  0.42432  0.78619  0.24367  1.0000
  C   C5        1.0  0.16271  0.93103  0.64588  1.0000
  C   C6        1.0  0.83729  0.06897  0.35412  1.0000
  C   C7        1.0  0.17147  0.81786  0.55042  1.0000
  C   C8        1.0  0.82853  0.18214  0.44958  1.0000
  C   C9        1.0  0.02376  0.71013  0.50304  1.0000
  C   C10       1.0  0.97624  0.28987  0.49696  1.0000
  C   C11       1.0  0.86997  0.71575  0.55007  1.0000
  C   C12       1.0  0.13003  0.28425  0.44993  1.0000
  C   C13       1.0  0.87420  0.83038  0.64735  1.0000
  C   C14       1.0  0.12580  0.16962  0.35266  1.0000
  C   C15       1.0  0.70764  0.60168  0.50208  1.0000
  C   C16       1.0  0.29235  0.39832  0.49793  1.0000
  C   C17       1.0  0.87837  0.33347  0.81664  1.0000
  C   C18       1.0  0.12163  0.66652  0.18336  1.0000
  C   C19       1.0  0.88204  0.48910  0.82071  1.0000
  C   C20       1.0  0.11796  0.51090  0.17929  1.0000
  C   C21       1.0  0.03541  0.60048  0.84513  1.0000
  C   C22       1.0  0.96459  0.39951  0.15487  1.0000
  C   C23       1.0  0.18276  0.55738  0.86419  1.0000
  C   C24       1.0  0.81724  0.44262  0.13580  1.0000
  C   C25       1.0  0.16498  0.39922  0.86598  1.0000
  C   C26       1.0  0.83502  0.60078  0.13402  1.0000
  C   C27       1.0  0.35169  0.67340  0.88396  1.0000
  C   C28       1.0  0.64831  0.32660  0.11604  1.0000
  N   N1        1.0  0.30129  0.04973  0.69453  1.0000
  N   N2        1.0  0.69871  0.95027  0.30547  1.0000
  N   N3        1.0  0.73591  0.21212  0.78049  1.0000
  N   N4        1.0  0.26409  0.78788  0.21951  1.0000
  N   N5        1.0  0.01664  0.93496  0.69692  1.0000
  N   N6        1.0  0.98336  0.06504  0.30308  1.0000
  N   N7        1.0  0.01752  0.28873  0.84379  1.0000
  N   N8        1.0  0.98248  0.71127  0.15621  1.0000
  Cl  Cl1       1.0  0.77309  0.92581  0.97408  1.0000
  Cl  Cl2       1.0  0.22691  0.07419  0.02592  1.0000
  O   O1        1.0  0.52586  0.95505  0.65557  1.0000
  O   O2        1.0  0.47414  0.04495  0.34442  1.0000
  O   O3        1.0  0.51926  0.32496  0.77343  1.0000
  O   O4        1.0  0.48074  0.67504  0.22657  1.0000
