data_image0
_chemical_formula_structural       Zn2H32C30N20
_chemical_formula_sum              "Zn2 H32 C30 N20"
_cell_length_a       7.60445
_cell_length_b       10.3852
_cell_length_c       11.3944
_cell_angle_alpha    66.462
_cell_angle_beta     88.1406
_cell_angle_gamma    89.3937

_space_group_name_H-M_alt    "P 1"
_space_group_IT_number       1

loop_
  _space_group_symop_operation_xyz
  'x, y, z'

loop_
  _atom_site_type_symbol
  _atom_site_label
  _atom_site_symmetry_multiplicity
  _atom_site_fract_x
  _atom_site_fract_y
  _atom_site_fract_z
  _atom_site_occupancy
  Zn  Zn1       1.0  0.80574  0.58958  0.14050  1.0000
  Zn  Zn2       1.0  0.19426  0.41042  0.85950  1.0000
  H   H1        1.0  0.36060  0.22861  0.61992  1.0000
  H   H2        1.0  0.63941  0.77138  0.38009  1.0000
  H   H3        1.0  0.16341  0.80770  0.73225  1.0000
  H   H4        1.0  0.83659  0.19230  0.26775  1.0000
  H   H5        1.0  0.29728  0.05687  0.33665  1.0000
  H   H6        1.0  0.70273  0.94313  0.66335  1.0000
  H   H7        1.0  0.51401  0.33644  0.38967  1.0000
  H   H8        1.0  0.48598  0.66356  0.61033  1.0000
  H   H9        1.0  0.43279  0.27917  0.27399  1.0000
  H   H10       1.0  0.56721  0.72083  0.72601  1.0000
  H   H11       1.0  0.14211  0.38069  0.17043  1.0000
  H   H12       1.0  0.85789  0.61931  0.82956  1.0000
  H   H13       1.0  0.99888  0.63169  0.37203  1.0000
  H   H14       1.0  0.00111  0.36830  0.62796  1.0000
  H   H15       1.0  0.29575  0.47580  0.48137  1.0000
  H   H16       1.0  0.70424  0.52420  0.51862  1.0000
  H   H17       1.0  0.34848  0.93664  0.88613  1.0000
  H   H18       1.0  0.65151  0.06336  0.11388  1.0000
  H   H19       1.0  0.25288  0.10645  0.83165  1.0000
  H   H20       1.0  0.74712  0.89355  0.16835  1.0000
  H   H21       1.0  0.16747  0.74630  0.03439  1.0000
  H   H22       1.0  0.83253  0.25370  0.96561  1.0000
  H   H23       1.0  0.65174  0.88846  0.92363  1.0000
  H   H24       1.0  0.34826  0.11154  0.07637  1.0000
  H   H25       1.0  0.89103  0.09386  0.77541  1.0000
  H   H26       1.0  0.10897  0.90614  0.22459  1.0000
  H   H27       1.0  0.16760  0.69940  0.57935  1.0000
  H   H28       1.0  0.83240  0.30060  0.42065  1.0000
  H   H29       1.0  0.25109  0.79258  0.41939  1.0000
  H   H30       1.0  0.74891  0.20743  0.58060  1.0000
  H   H31       1.0  0.03080  0.81814  0.46248  1.0000
  H   H32       1.0  0.96920  0.18186  0.53752  1.0000
  C   C1        1.0  0.33733  0.15633  0.46703  1.0000
  C   C2        1.0  0.66268  0.84367  0.53297  1.0000
  C   C3        1.0  0.32396  0.14179  0.59466  1.0000
  C   C4        1.0  0.67604  0.85820  0.40534  1.0000
  C   C5        1.0  0.26079  0.01700  0.69021  1.0000
  C   C6        1.0  0.73921  0.98299  0.30979  1.0000
  C   C7        1.0  0.21205  0.90597  0.65768  1.0000
  C   C8        1.0  0.78795  0.09403  0.34232  1.0000
  C   C9        1.0  0.22391  0.91864  0.53088  1.0000
  C   C10       1.0  0.77610  0.08136  0.46912  1.0000
  C   C11       1.0  0.28686  0.04519  0.43615  1.0000
  C   C12       1.0  0.71315  0.95481  0.56385  1.0000
  C   C13       1.0  0.39864  0.29326  0.36243  1.0000
  C   C14       1.0  0.60136  0.70673  0.63757  1.0000
  C   C15       1.0  0.14092  0.42812  0.23974  1.0000
  C   C16       1.0  0.85908  0.57188  0.76026  1.0000
  C   C17       1.0  0.07279  0.55663  0.34636  1.0000
  C   C18       1.0  0.92720  0.44337  0.65363  1.0000
  C   C19       1.0  0.21908  0.48058  0.40113  1.0000
  C   C20       1.0  0.78092  0.51942  0.59887  1.0000
  C   C21       1.0  0.24405  0.00309  0.82740  1.0000
  C   C22       1.0  0.75595  0.99692  0.17260  1.0000
  C   C23       1.0  0.05791  0.80865  0.98302  1.0000
  C   C24       1.0  0.94209  0.19135  0.01698  1.0000
  C   C25       1.0  0.79398  0.88892  0.92339  1.0000
  C   C26       1.0  0.20602  0.11108  0.07661  1.0000
  C   C27       1.0  0.91119  0.99035  0.84910  1.0000
  C   C28       1.0  0.08881  0.00965  0.15090  1.0000
  C   C29       1.0  0.16656  0.80050  0.49632  1.0000
  C   C30       1.0  0.83344  0.19950  0.50368  1.0000
  N   N1        1.0  0.62027  0.61569  0.25608  1.0000
  N   N2        1.0  0.37973  0.38431  0.74392  1.0000
  N   N3        1.0  0.50574  0.70239  0.21571  1.0000
  N   N4        1.0  0.49426  0.29761  0.78429  1.0000
  N   N5        1.0  0.39368  0.78573  0.18294  1.0000
  N   N6        1.0  0.60632  0.21427  0.81706  1.0000
  N   N7        1.0  0.77887  0.43526  0.08368  1.0000
  N   N8        1.0  0.22114  0.56474  0.91632  1.0000
  N   N9        1.0  0.64573  0.38214  0.07054  1.0000
  N   N10       1.0  0.35428  0.61785  0.92946  1.0000
  N   N11       1.0  0.52263  0.32330  0.05707  1.0000
  N   N12       1.0  0.47738  0.67670  0.94293  1.0000
  N   N13       1.0  0.26060  0.40066  0.33202  1.0000
  N   N14       1.0  0.73940  0.59934  0.66798  1.0000
  N   N15       1.0  0.02495  0.52281  0.24636  1.0000
  N   N16       1.0  0.97505  0.47719  0.75363  1.0000
  N   N17       1.0  0.07697  0.93763  0.88781  1.0000
  N   N18       1.0  0.92303  0.06237  0.11219  1.0000
  N   N19       1.0  0.88740  0.77556  0.00651  1.0000
  N   N20       1.0  0.11259  0.22444  0.99349  1.0000
