data_image0
_chemical_formula_structural       MnH32C30N14
_chemical_formula_sum              "Mn1 H32 C30 N14"
_cell_length_a       8.40058
_cell_length_b       8.58774
_cell_length_c       10.8989
_cell_angle_alpha    111.142
_cell_angle_beta     95.7343
_cell_angle_gamma    98.7916

_space_group_name_H-M_alt    "P 1"
_space_group_IT_number       1

loop_
  _space_group_symop_operation_xyz
  'x, y, z'

loop_
  _atom_site_type_symbol
  _atom_site_label
  _atom_site_symmetry_multiplicity
  _atom_site_fract_x
  _atom_site_fract_y
  _atom_site_fract_z
  _atom_site_occupancy
  Mn  Mn1       1.0  0.50000  0.00000  1.00000  1.0000
  H   H1        1.0  0.26677  0.50981  0.61989  1.0000
  H   H2        1.0  0.73323  0.49019  0.38011  1.0000
  H   H3        1.0  0.92452  0.18861  0.73878  1.0000
  H   H4        1.0  0.07548  0.81138  0.26122  1.0000
  H   H5        1.0  0.87763  0.13441  0.32687  1.0000
  H   H6        1.0  0.12237  0.86560  0.67313  1.0000
  H   H7        1.0  0.05063  0.33945  0.26693  1.0000
  H   H8        1.0  0.94937  0.66056  0.73307  1.0000
  H   H9        1.0  0.18864  0.51469  0.39164  1.0000
  H   H10       1.0  0.81136  0.48531  0.60836  1.0000
  H   H11       1.0  0.18314  0.17613  0.09861  1.0000
  H   H12       1.0  0.81686  0.82387  0.90139  1.0000
  H   H13       1.0  0.63313  0.17816  0.31143  1.0000
  H   H14       1.0  0.36686  0.82184  0.68857  1.0000
  H   H15       1.0  0.44842  0.35783  0.48987  1.0000
  H   H16       1.0  0.55158  0.64217  0.51013  1.0000
  H   H17       1.0  0.26544  0.56528  0.85460  1.0000
  H   H18       1.0  0.73456  0.43473  0.14540  1.0000
  H   H19       1.0  0.12680  0.43184  0.90626  1.0000
  H   H20       1.0  0.87319  0.56816  0.09374  1.0000
  H   H21       1.0  0.20088  0.15909  0.91284  1.0000
  H   H22       1.0  0.79912  0.84091  0.08716  1.0000
  H   H23       1.0  0.69729  0.25128  0.86874  1.0000
  H   H24       1.0  0.30270  0.74872  0.13126  1.0000
  H   H25       1.0  0.53991  0.47729  0.80046  1.0000
  H   H26       1.0  0.46009  0.52271  0.19954  1.0000
  H   H27       1.0  0.76105  0.89806  0.50527  1.0000
  H   H28       1.0  0.23895  0.10194  0.49473  1.0000
  H   H29       1.0  0.66389  0.97725  0.39524  1.0000
  H   H30       1.0  0.33612  0.02274  0.60475  1.0000
  H   H31       1.0  0.64402  0.05450  0.56708  1.0000
  H   H32       1.0  0.35598  0.94549  0.43292  1.0000
  C   C1        1.0  0.07981  0.32581  0.46151  1.0000
  C   C2        1.0  0.92019  0.67420  0.53850  1.0000
  C   C3        1.0  0.16086  0.40583  0.59341  1.0000
  C   C4        1.0  0.83914  0.59418  0.40659  1.0000
  C   C5        1.0  0.10761  0.35411  0.69278  1.0000
  C   C6        1.0  0.89239  0.64589  0.30723  1.0000
  C   C7        1.0  0.96677  0.22738  0.66044  1.0000
  C   C8        1.0  0.03323  0.77262  0.33956  1.0000
  C   C9        1.0  0.88000  0.14896  0.52941  1.0000
  C   C10       1.0  0.12000  0.85104  0.47059  1.0000
  C   C11       1.0  0.94031  0.19748  0.43034  1.0000
  C   C12       1.0  0.05969  0.80252  0.56966  1.0000
  C   C13       1.0  0.14549  0.37572  0.35444  1.0000
  C   C14       1.0  0.85451  0.62428  0.64557  1.0000
  C   C15       1.0  0.28442  0.19871  0.17705  1.0000
  C   C16       1.0  0.71559  0.80129  0.82295  1.0000
  C   C17       1.0  0.51332  0.20470  0.29320  1.0000
  C   C18       1.0  0.48668  0.79529  0.70680  1.0000
  C   C19       1.0  0.42431  0.29599  0.38218  1.0000
  C   C20       1.0  0.57569  0.70401  0.61782  1.0000
  C   C21       1.0  0.20553  0.43286  0.83201  1.0000
  C   C22       1.0  0.79447  0.56714  0.16799  1.0000
  C   C23       1.0  0.31695  0.21146  0.89371  1.0000
  C   C24       1.0  0.68305  0.78854  0.10629  1.0000
  C   C25       1.0  0.57069  0.26302  0.86771  1.0000
  C   C26       1.0  0.42931  0.73698  0.13229  1.0000
  C   C27       1.0  0.49439  0.37505  0.83192  1.0000
  C   C28       1.0  0.50561  0.62494  0.16808  1.0000
  C   C29       1.0  0.72886  0.01340  0.49696  1.0000
  C   C30       1.0  0.27114  0.98660  0.50304  1.0000
  N   N1        1.0  0.27104  0.87110  0.92431  1.0000
  N   N2        1.0  0.72896  0.12890  0.07569  1.0000
  N   N3        1.0  0.15544  0.83317  0.97101  1.0000
  N   N4        1.0  0.84455  0.16682  0.02900  1.0000
  N   N5        1.0  0.03764  0.78916  0.01027  1.0000
  N   N6        1.0  0.96236  0.21084  0.98973  1.0000
  N   N7        1.0  0.28003  0.29182  0.30725  1.0000
  N   N8        1.0  0.71997  0.70818  0.69275  1.0000
  N   N9        1.0  0.42541  0.14400  0.16508  1.0000
  N   N10       1.0  0.57459  0.85600  0.83492  1.0000
  N   N11       1.0  0.33458  0.34166  0.84994  1.0000
  N   N12       1.0  0.66542  0.65834  0.15006  1.0000
  N   N13       1.0  0.45936  0.16246  0.90844  1.0000
  N   N14       1.0  0.54064  0.83754  0.09156  1.0000
