data_image0
_chemical_formula_structural       H16Pb2C20Br4N4O2
_chemical_formula_sum              "H16 Pb2 C20 Br4 N4 O2"
_cell_length_a       4.20729
_cell_length_b       8.51385
_cell_length_c       18.2984
_cell_angle_alpha    93.2578
_cell_angle_beta     89.8628
_cell_angle_gamma    104.02

_space_group_name_H-M_alt    "P 1"
_space_group_IT_number       1

loop_
  _space_group_symop_operation_xyz
  'x, y, z'

loop_
  _atom_site_type_symbol
  _atom_site_label
  _atom_site_symmetry_multiplicity
  _atom_site_fract_x
  _atom_site_fract_y
  _atom_site_fract_z
  _atom_site_occupancy
  H   H1        1.0  0.76990  0.82180  0.17310  1.0000
  H   H2        1.0  0.96498  0.17528  0.82802  1.0000
  H   H3        1.0  0.90965  0.69910  0.28556  1.0000
  H   H4        1.0  0.22436  0.29730  0.71522  1.0000
  H   H5        1.0  0.22938  0.34393  0.14237  1.0000
  H   H6        1.0  0.87761  0.65996  0.85734  1.0000
  H   H7        1.0  0.96609  0.56720  0.37358  1.0000
  H   H8        1.0  0.40231  0.43098  0.62706  1.0000
  H   H9        1.0  0.07343  0.47844  0.03759  1.0000
  H   H10       1.0  0.59364  0.52452  0.96275  1.0000
  H   H11       1.0  0.05020  0.39895  0.47417  1.0000
  H   H12       1.0  0.65156  0.59802  0.52584  1.0000
  H   H13       1.0  0.32774  0.23378  0.22578  1.0000
  H   H14       1.0  0.08566  0.76813  0.77384  1.0000
  H   H15       1.0  0.39862  0.08370  0.33226  1.0000
  H   H16       1.0  0.30449  0.91651  0.66697  1.0000
  Pb  Pb1       1.0  0.99725  0.99983  0.99831  1.0000
  Pb  Pb2       1.0  0.21025  0.99978  0.50044  1.0000
  C   C1        1.0  0.87484  0.71661  0.17122  1.0000
  C   C2        1.0  0.17026  0.28171  0.82969  1.0000
  C   C3        1.0  0.95383  0.64474  0.23228  1.0000
  C   C4        1.0  0.31847  0.35348  0.76837  1.0000
  C   C5        1.0  0.12919  0.44917  0.15365  1.0000
  C   C6        1.0  0.67817  0.55293  0.84652  1.0000
  C   C7        1.0  0.06489  0.46187  0.36099  1.0000
  C   C8        1.0  0.60345  0.53681  0.63926  1.0000
  C   C9        1.0  0.07755  0.50524  0.22545  1.0000
  C   C10       1.0  0.57432  0.49484  0.77487  1.0000
  C   C11       1.0  0.04838  0.52306  0.09375  1.0000
  C   C12       1.0  0.52661  0.47885  0.90668  1.0000
  C   C13       1.0  0.13817  0.41693  0.28890  1.0000
  C   C14       1.0  0.72000  0.58296  0.71119  1.0000
  C   C15       1.0  0.11220  0.36823  0.41799  1.0000
  C   C16       1.0  0.74268  0.62974  0.58194  1.0000
  C   C17       1.0  0.26270  0.27811  0.27934  1.0000
  C   C18       1.0  0.97868  0.72247  0.72040  1.0000
  C   C19       1.0  0.30319  0.19206  0.33929  1.0000
  C   C20       1.0  0.10387  0.80769  0.66019  1.0000
  Br  Br1       1.0  0.52810  0.07735  0.11380  1.0000
  Br  Br2       1.0  0.45886  0.92984  0.88133  1.0000
  Br  Br3       1.0  0.64992  0.83025  0.40428  1.0000
  Br  Br4       1.0  0.81458  0.16886  0.59715  1.0000
  N   N1        1.0  0.91468  0.65336  0.10253  1.0000
  N   N2        1.0  0.26893  0.34682  0.89816  1.0000
  N   N3        1.0  0.22829  0.23476  0.40791  1.0000
  N   N4        1.0  0.98867  0.76367  0.59167  1.0000
  O   O1        1.0  0.81491  0.71275  0.04427  1.0000
  O   O2        1.0  0.11136  0.28762  0.95673  1.0000
