data_image0
_chemical_formula_structural       Tl4H8C16O8
_chemical_formula_sum              "Tl4 H8 C16 O8"
_cell_length_a       6.25791
_cell_length_b       7.51337
_cell_length_c       10.692
_cell_angle_alpha    101.492
_cell_angle_beta     90.0004
_cell_angle_gamma    90.0002

_space_group_name_H-M_alt    "P 1"
_space_group_IT_number       1

loop_
  _space_group_symop_operation_xyz
  'x, y, z'

loop_
  _atom_site_type_symbol
  _atom_site_label
  _atom_site_symmetry_multiplicity
  _atom_site_fract_x
  _atom_site_fract_y
  _atom_site_fract_z
  _atom_site_occupancy
  Tl  Tl1       1.0  0.91347  0.65103  0.94653  1.0000
  Tl  Tl2       1.0  0.41347  0.34896  0.05347  1.0000
  Tl  Tl3       1.0  0.37365  0.90570  0.21611  1.0000
  Tl  Tl4       1.0  0.87365  0.09430  0.78389  1.0000
  H   H1        1.0  0.89174  0.94238  0.25748  1.0000
  H   H2        1.0  0.39176  0.05762  0.74252  1.0000
  H   H3        1.0  0.79595  0.01172  0.48763  1.0000
  H   H4        1.0  0.29596  0.98828  0.51238  1.0000
  H   H5        1.0  0.73243  0.33591  0.59783  1.0000
  H   H6        1.0  0.23243  0.66409  0.40217  1.0000
  H   H7        1.0  0.76775  0.58189  0.47686  1.0000
  H   H8        1.0  0.26774  0.41812  0.52314  1.0000
  C   C1        1.0  0.85204  0.40420  0.29938  1.0000
  C   C2        1.0  0.35204  0.59580  0.70062  1.0000
  C   C3        1.0  0.88794  0.22252  0.23740  1.0000
  C   C4        1.0  0.38793  0.77748  0.76260  1.0000
  C   C5        1.0  0.86899  0.08309  0.30685  1.0000
  C   C6        1.0  0.36900  0.91691  0.69315  1.0000
  C   C7        1.0  0.81363  0.12240  0.43591  1.0000
  C   C8        1.0  0.31363  0.87761  0.56409  1.0000
  C   C9        1.0  0.77760  0.30225  0.49721  1.0000
  C   C10       1.0  0.27760  0.69775  0.50278  1.0000
  C   C11       1.0  0.79671  0.44162  0.42889  1.0000
  C   C12       1.0  0.29671  0.55838  0.57111  1.0000
  C   C13       1.0  0.87719  0.56070  0.23067  1.0000
  C   C14       1.0  0.37718  0.43929  0.76932  1.0000
  C   C15       1.0  0.93948  0.17494  0.09714  1.0000
  C   C16       1.0  0.43949  0.82506  0.90286  1.0000
  O   O1        1.0  0.06695  0.60623  0.20714  1.0000
  O   O2        1.0  0.56694  0.39376  0.79286  1.0000
  O   O3        1.0  0.70759  0.63779  0.20316  1.0000
  O   O4        1.0  0.20758  0.36222  0.79684  1.0000
  O   O5        1.0  0.87072  0.28254  0.02717  1.0000
  O   O6        1.0  0.37072  0.71746  0.97283  1.0000
  O   O7        1.0  0.04902  0.03310  0.05527  1.0000
  O   O8        1.0  0.54902  0.96690  0.94473  1.0000
