data_image0
_chemical_formula_structural       Cu2P2H18C16N8O8
_chemical_formula_sum              "Cu2 P2 H18 C16 N8 O8"
_cell_length_a       7.35232
_cell_length_b       7.6511
_cell_length_c       10.6782
_cell_angle_alpha    93.4004
_cell_angle_beta     108.433
_cell_angle_gamma    90.5125

_space_group_name_H-M_alt    "P 1"
_space_group_IT_number       1

loop_
  _space_group_symop_operation_xyz
  'x, y, z'

loop_
  _atom_site_type_symbol
  _atom_site_label
  _atom_site_symmetry_multiplicity
  _atom_site_fract_x
  _atom_site_fract_y
  _atom_site_fract_z
  _atom_site_occupancy
  Cu  Cu1       1.0  1.00000  0.50000  0.00000  1.0000
  Cu  Cu2       1.0  0.50000  0.50000  1.00000  1.0000
  P   P1        1.0  0.25037  0.15132  0.99627  1.0000
  P   P2        1.0  0.74963  0.84869  0.00374  1.0000
  H   H1        1.0  0.06242  0.05843  0.80203  1.0000
  H   H2        1.0  0.93758  0.94158  0.19797  1.0000
  H   H3        1.0  0.23067  0.71816  0.84353  1.0000
  H   H4        1.0  0.76933  0.28184  0.15646  1.0000
  H   H5        1.0  0.23607  0.53913  0.76537  1.0000
  H   H6        1.0  0.76393  0.46088  0.23462  1.0000
  H   H7        1.0  0.18679  0.92501  0.11720  1.0000
  H   H8        1.0  0.81320  0.07499  0.88279  1.0000
  H   H9        1.0  0.42463  0.92069  0.11322  1.0000
  H   H10       1.0  0.57536  0.07931  0.88677  1.0000
  H   H11       1.0  0.11468  0.22117  0.25425  1.0000
  H   H12       1.0  0.88531  0.77882  0.74575  1.0000
  H   H13       1.0  0.67463  0.01698  0.30361  1.0000
  H   H14       1.0  0.32536  0.98302  0.69639  1.0000
  H   H15       1.0  0.22975  0.35818  0.48180  1.0000
  H   H16       1.0  0.77026  0.64182  0.51820  1.0000
  H   H17       1.0  0.79283  0.16176  0.53057  1.0000
  H   H18       1.0  0.20718  0.83824  0.46942  1.0000
  C   C1        1.0  0.31530  0.00747  0.13010  1.0000
  C   C2        1.0  0.68470  0.99253  0.86990  1.0000
  C   C3        1.0  0.38562  0.10394  0.26429  1.0000
  C   C4        1.0  0.61437  0.89606  0.73572  1.0000
  C   C5        1.0  0.26215  0.20274  0.31549  1.0000
  C   C6        1.0  0.73785  0.79725  0.68451  1.0000
  C   C7        1.0  0.57793  0.09338  0.34259  1.0000
  C   C8        1.0  0.42206  0.90662  0.65741  1.0000
  C   C9        1.0  0.32719  0.28244  0.44297  1.0000
  C   C10       1.0  0.67281  0.71756  0.55703  1.0000
  C   C11       1.0  0.64420  0.17417  0.46946  1.0000
  C   C12       1.0  0.35581  0.82582  0.53054  1.0000
  C   C13       1.0  0.51850  0.26710  0.52207  1.0000
  C   C14       1.0  0.48151  0.73289  0.47792  1.0000
  C   C15       1.0  0.58548  0.34138  0.65831  1.0000
  C   C16       1.0  0.41453  0.65862  0.34170  1.0000
  N   N1        1.0  0.76928  0.42417  0.84966  1.0000
  N   N2        1.0  0.23073  0.57583  0.15034  1.0000
  N   N3        1.0  0.58974  0.45322  0.84552  1.0000
  N   N4        1.0  0.41026  0.54678  0.15448  1.0000
  N   N5        1.0  0.77217  0.35270  0.73431  1.0000
  N   N6        1.0  0.22784  0.64730  0.26569  1.0000
  N   N7        1.0  0.47017  0.40331  0.72669  1.0000
  N   N8        1.0  0.52983  0.59668  0.27331  1.0000
  O   O1        1.0  0.07947  0.25791  0.00188  1.0000
  O   O2        1.0  0.92054  0.74210  0.99813  1.0000
  O   O3        1.0  0.17589  0.01411  0.86663  1.0000
  O   O4        1.0  0.82410  0.98590  0.13337  1.0000
  O   O5        1.0  0.42911  0.24800  0.99072  1.0000
  O   O6        1.0  0.57089  0.75200  0.00928  1.0000
  O   O7        1.0  0.19032  0.59470  0.83474  1.0000
  O   O8        1.0  0.80968  0.40530  0.16525  1.0000
