data_image0
_chemical_formula_structural       Zn4H24C20O16
_chemical_formula_sum              "Zn4 H24 C20 O16"
_cell_length_a       4.82077
_cell_length_b       9.31639
_cell_length_c       13.8455
_cell_angle_alpha    90.0937
_cell_angle_beta     89.9999
_cell_angle_gamma    90.0002

_space_group_name_H-M_alt    "P 1"
_space_group_IT_number       1

loop_
  _space_group_symop_operation_xyz
  'x, y, z'

loop_
  _atom_site_type_symbol
  _atom_site_label
  _atom_site_symmetry_multiplicity
  _atom_site_fract_x
  _atom_site_fract_y
  _atom_site_fract_z
  _atom_site_occupancy
  Zn  Zn1       1.0  0.98615  0.00388  0.25301  1.0000
  Zn  Zn2       1.0  0.98615  0.49612  0.74699  1.0000
  Zn  Zn3       1.0  0.01384  0.99612  0.74699  1.0000
  Zn  Zn4       1.0  0.01385  0.50388  0.25301  1.0000
  H   H1        1.0  0.42799  0.40087  0.11867  1.0000
  H   H2        1.0  0.42798  0.09913  0.88133  1.0000
  H   H3        1.0  0.57201  0.59913  0.88133  1.0000
  H   H4        1.0  0.57202  0.90087  0.11867  1.0000
  H   H5        1.0  0.14129  0.40411  0.04094  1.0000
  H   H6        1.0  0.14129  0.09589  0.95906  1.0000
  H   H7        1.0  0.85870  0.59589  0.95906  1.0000
  H   H8        1.0  0.85871  0.90411  0.04094  1.0000
  H   H9        1.0  0.59560  0.32757  0.96338  1.0000
  H   H10       1.0  0.59560  0.17243  0.03662  1.0000
  H   H11       1.0  0.40440  0.67243  0.03662  1.0000
  H   H12       1.0  0.40440  0.82757  0.96338  1.0000
  H   H13       1.0  0.76293  0.09417  0.46822  1.0000
  H   H14       1.0  0.76292  0.40583  0.53178  1.0000
  H   H15       1.0  0.23707  0.90583  0.53178  1.0000
  H   H16       1.0  0.23707  0.59417  0.46822  1.0000
  H   H17       1.0  0.75495  0.23809  0.38795  1.0000
  H   H18       1.0  0.75495  0.26192  0.61205  1.0000
  H   H19       1.0  0.24505  0.76191  0.61205  1.0000
  H   H20       1.0  0.24505  0.73808  0.38795  1.0000
  H   H21       1.0  0.30125  0.32290  0.46018  1.0000
  H   H22       1.0  0.30125  0.17710  0.53982  1.0000
  H   H23       1.0  0.69875  0.67710  0.53982  1.0000
  H   H24       1.0  0.69875  0.82290  0.46018  1.0000
  C   C1        1.0  0.13179  0.23979  0.14653  1.0000
  C   C2        1.0  0.13178  0.26020  0.85347  1.0000
  C   C3        1.0  0.86821  0.76021  0.85347  1.0000
  C   C4        1.0  0.86821  0.73980  0.14653  1.0000
  C   C5        1.0  0.29056  0.33117  0.07563  1.0000
  C   C6        1.0  0.29056  0.16883  0.92437  1.0000
  C   C7        1.0  0.70944  0.66883  0.92437  1.0000
  C   C8        1.0  0.70944  0.83117  0.07563  1.0000
  C   C9        1.0  0.46001  0.25000  1.00000  1.0000
  C   C10       1.0  0.53999  0.75000  0.00000  1.0000
  C   C11       1.0  0.46296  0.07576  0.35702  1.0000
  C   C12       1.0  0.46295  0.42424  0.64298  1.0000
  C   C13       1.0  0.53704  0.92424  0.64298  1.0000
  C   C14       1.0  0.53705  0.57576  0.35702  1.0000
  C   C15       1.0  0.61931  0.16578  0.42943  1.0000
  C   C16       1.0  0.61931  0.33422  0.57057  1.0000
  C   C17       1.0  0.38069  0.83422  0.57057  1.0000
  C   C18       1.0  0.38069  0.66578  0.42943  1.0000
  C   C19       1.0  0.43887  0.25000  0.50000  1.0000
  C   C20       1.0  0.56113  0.75000  0.50000  1.0000
  O   O1        1.0  0.13133  0.10347  0.13635  1.0000
  O   O2        1.0  0.13133  0.39653  0.86365  1.0000
  O   O3        1.0  0.86867  0.89653  0.86365  1.0000
  O   O4        1.0  0.86867  0.60347  0.13635  1.0000
  O   O5        1.0  0.00036  0.29817  0.21680  1.0000
  O   O6        1.0  0.00036  0.20183  0.78320  1.0000
  O   O7        1.0  0.99964  0.70183  0.78320  1.0000
  O   O8        1.0  0.99964  0.79817  0.21680  1.0000
  O   O9        1.0  0.58826  0.01759  0.28576  1.0000
  O   O10       1.0  0.58826  0.48241  0.71424  1.0000
  O   O11       1.0  0.41174  0.98241  0.71424  1.0000
  O   O12       1.0  0.41174  0.51759  0.28576  1.0000
  O   O13       1.0  0.20152  0.05967  0.36842  1.0000
  O   O14       1.0  0.20152  0.44033  0.63158  1.0000
  O   O15       1.0  0.79847  0.94033  0.63158  1.0000
  O   O16       1.0  0.79849  0.55967  0.36842  1.0000
