data_image0
_chemical_formula_structural       U2H12C16O14
_chemical_formula_sum              "U2 H12 C16 O14"
_cell_length_a       6.58248
_cell_length_b       8.14391
_cell_length_c       10.2519
_cell_angle_alpha    93.8364
_cell_angle_beta     98.0077
_cell_angle_gamma    102.39

_space_group_name_H-M_alt    "P 1"
_space_group_IT_number       1

loop_
  _space_group_symop_operation_xyz
  'x, y, z'

loop_
  _atom_site_type_symbol
  _atom_site_label
  _atom_site_symmetry_multiplicity
  _atom_site_fract_x
  _atom_site_fract_y
  _atom_site_fract_z
  _atom_site_occupancy
  U   U1        1.0  0.17688  0.06230  0.27114  1.0000
  U   U2        1.0  0.82313  0.93772  0.72885  1.0000
  H   H1        1.0  0.67980  0.47251  0.38157  1.0000
  H   H2        1.0  0.32021  0.52748  0.61843  1.0000
  H   H3        1.0  0.69166  0.70500  0.23578  1.0000
  H   H4        1.0  0.30834  0.29500  0.76424  1.0000
  H   H5        1.0  0.74166  0.65817  0.00189  1.0000
  H   H6        1.0  0.25833  0.34184  0.99811  1.0000
  H   H7        1.0  0.77018  0.37530  0.91102  1.0000
  H   H8        1.0  0.22980  0.62470  0.08898  1.0000
  H   H9        1.0  0.35846  0.09625  0.56103  1.0000
  H   H10       1.0  0.64154  0.90374  0.43896  1.0000
  H   H11       1.0  0.15883  0.17345  0.55022  1.0000
  H   H12       1.0  0.84117  0.82654  0.44978  1.0000
  C   C1        1.0  0.78075  0.10229  0.03880  1.0000
  C   C2        1.0  0.21925  0.89774  0.96120  1.0000
  C   C3        1.0  0.72425  0.15834  0.32088  1.0000
  C   C4        1.0  0.27574  0.84165  0.67912  1.0000
  C   C5        1.0  0.72623  0.29409  0.22938  1.0000
  C   C6        1.0  0.27377  0.70590  0.77063  1.0000
  C   C7        1.0  0.70357  0.45189  0.27914  1.0000
  C   C8        1.0  0.29644  0.54811  0.72087  1.0000
  C   C9        1.0  0.71002  0.58227  0.19720  1.0000
  C   C10       1.0  0.28997  0.41772  0.80281  1.0000
  C   C11       1.0  0.73687  0.55624  0.06560  1.0000
  C   C12       1.0  0.26312  0.44377  0.93442  1.0000
  C   C13       1.0  0.75257  0.39785  0.01429  1.0000
  C   C14       1.0  0.24742  0.60214  0.98572  1.0000
  C   C15       1.0  0.74981  0.26592  0.09558  1.0000
  C   C16       1.0  0.25019  0.73408  0.90443  1.0000
  O   O1        1.0  0.10220  0.85524  0.32783  1.0000
  O   O2        1.0  0.89781  0.14478  0.67216  1.0000
  O   O3        1.0  0.24286  0.27123  0.21922  1.0000
  O   O4        1.0  0.75716  0.72880  0.78077  1.0000
  O   O5        1.0  0.89922  0.13423  0.37558  1.0000
  O   O6        1.0  0.10076  0.86575  0.62442  1.0000
  O   O7        1.0  0.86789  0.00832  0.11370  1.0000
  O   O8        1.0  0.13212  0.99168  0.88630  1.0000
  O   O9        1.0  0.72240  0.06098  0.91488  1.0000
  O   O10       1.0  0.27759  0.93903  0.08512  1.0000
  O   O11       1.0  0.54983  0.07098  0.34563  1.0000
  O   O12       1.0  0.45016  0.92900  0.65436  1.0000
  O   O13       1.0  0.28815  0.17529  0.51210  1.0000
  O   O14       1.0  0.71185  0.82470  0.48790  1.0000
