data_image0
_chemical_formula_structural       U2H12C16O14
_chemical_formula_sum              "U2 H12 C16 O14"
_cell_length_a       6.69677
_cell_length_b       7.83665
_cell_length_c       10.4965
_cell_angle_alpha    96.4832
_cell_angle_beta     106.903
_cell_angle_gamma    102.251

_space_group_name_H-M_alt    "P 1"
_space_group_IT_number       1

loop_
  _space_group_symop_operation_xyz
  'x, y, z'

loop_
  _atom_site_type_symbol
  _atom_site_label
  _atom_site_symmetry_multiplicity
  _atom_site_fract_x
  _atom_site_fract_y
  _atom_site_fract_z
  _atom_site_occupancy
  U   U1        1.0  0.21975  0.08042  0.28578  1.0000
  U   U2        1.0  0.78025  0.91959  0.71422  1.0000
  H   H1        1.0  0.48927  0.18746  0.58150  1.0000
  H   H2        1.0  0.51073  0.81255  0.41850  1.0000
  H   H3        1.0  0.25200  0.09438  0.57378  1.0000
  H   H4        1.0  0.74801  0.90562  0.42622  1.0000
  H   H5        1.0  0.73529  0.49612  0.37157  1.0000
  H   H6        1.0  0.26472  0.50388  0.62843  1.0000
  H   H7        1.0  0.74570  0.72504  0.22794  1.0000
  H   H8        1.0  0.25428  0.27495  0.77205  1.0000
  H   H9        1.0  0.75727  0.64935  0.99417  1.0000
  H   H10       1.0  0.24271  0.35065  0.00583  1.0000
  H   H11       1.0  0.75772  0.34238  0.90496  1.0000
  H   H12       1.0  0.24228  0.65762  0.09504  1.0000
  C   C1        1.0  0.76615  0.24922  0.09120  1.0000
  C   C2        1.0  0.23385  0.75077  0.90879  1.0000
  C   C3        1.0  0.76265  0.29336  0.22490  1.0000
  C   C4        1.0  0.23735  0.70664  0.77510  1.0000
  C   C5        1.0  0.74795  0.46363  0.27096  1.0000
  C   C6        1.0  0.25206  0.53637  0.72904  1.0000
  C   C7        1.0  0.75110  0.59198  0.18947  1.0000
  C   C8        1.0  0.24889  0.40803  0.81053  1.0000
  C   C9        1.0  0.75705  0.54958  0.05837  1.0000
  C   C10       1.0  0.24293  0.45042  0.94164  1.0000
  C   C11       1.0  0.75829  0.37783  0.00849  1.0000
  C   C12       1.0  0.24171  0.62217  0.99151  1.0000
  C   C13       1.0  0.78106  0.07307  0.03091  1.0000
  C   C14       1.0  0.21895  0.92693  0.96909  1.0000
  C   C15       1.0  0.75576  0.16582  0.32018  1.0000
  C   C16       1.0  0.24425  0.83418  0.67982  1.0000
  O   O1        1.0  0.23676  0.30401  0.25605  1.0000
  O   O2        1.0  0.76323  0.69600  0.74396  1.0000
  O   O3        1.0  0.21254  0.85883  0.32333  1.0000
  O   O4        1.0  0.78747  0.14118  0.67668  1.0000
  O   O5        1.0  0.89586  0.98594  0.10347  1.0000
  O   O6        1.0  0.10414  0.01406  0.89653  1.0000
  O   O7        1.0  0.68296  0.01577  0.90448  1.0000
  O   O8        1.0  0.31704  0.98423  0.09553  1.0000
  O   O9        1.0  0.90156  0.08310  0.35858  1.0000
  O   O10       1.0  0.09845  0.91690  0.64142  1.0000
  O   O11       1.0  0.59748  0.14451  0.36659  1.0000
  O   O12       1.0  0.40252  0.85549  0.63341  1.0000
  O   O13       1.0  0.33676  0.18419  0.53686  1.0000
  O   O14       1.0  0.66324  0.81581  0.46314  1.0000
