data_image0
_chemical_formula_structural       Cu2H16C8N16Cl4
_chemical_formula_sum              "Cu2 H16 C8 N16 Cl4"
_cell_length_a       6.69785
_cell_length_b       7.13431
_cell_length_c       10.8846
_cell_angle_alpha    103.619
_cell_angle_beta     89.9983
_cell_angle_gamma    89.9997

_space_group_name_H-M_alt    "P 1"
_space_group_IT_number       1

loop_
  _space_group_symop_operation_xyz
  'x, y, z'

loop_
  _atom_site_type_symbol
  _atom_site_label
  _atom_site_symmetry_multiplicity
  _atom_site_fract_x
  _atom_site_fract_y
  _atom_site_fract_z
  _atom_site_occupancy
  Cu  Cu1       1.0  0.00000  1.00000  0.50000  1.0000
  Cu  Cu2       1.0  0.50001  0.49999  0.50000  1.0000
  H   H1        1.0  0.46019  0.07650  0.60550  1.0000
  H   H2        1.0  0.96020  0.42350  0.39451  1.0000
  H   H3        1.0  0.53981  0.92349  0.39449  1.0000
  H   H4        1.0  0.03981  0.57650  0.60549  1.0000
  H   H5        1.0  0.58040  0.21450  0.94433  1.0000
  H   H6        1.0  0.08044  0.28547  0.05568  1.0000
  H   H7        1.0  0.41960  0.78550  0.05567  1.0000
  H   H8        1.0  0.91956  0.71454  0.94432  1.0000
  H   H9        1.0  0.61974  0.95918  0.88733  1.0000
  H   H10       1.0  0.11976  0.54080  0.11265  1.0000
  H   H11       1.0  0.38026  0.04083  0.11268  1.0000
  H   H12       1.0  0.88023  0.45921  0.88735  1.0000
  H   H13       1.0  0.69666  0.11991  0.79351  1.0000
  H   H14       1.0  0.19671  0.38010  0.20649  1.0000
  H   H15       1.0  0.30333  0.88009  0.20649  1.0000
  H   H16       1.0  0.80330  0.61991  0.79351  1.0000
  C   C1        1.0  0.34991  0.06598  0.67643  1.0000
  C   C2        1.0  0.84993  0.43401  0.32357  1.0000
  C   C3        1.0  0.65009  0.93400  0.32358  1.0000
  C   C4        1.0  0.15008  0.56599  0.67643  1.0000
  C   C5        1.0  0.58444  0.09416  0.86060  1.0000
  C   C6        1.0  0.08449  0.40584  0.13940  1.0000
  C   C7        1.0  0.41555  0.90584  0.13940  1.0000
  C   C8        1.0  0.91552  0.59418  0.86060  1.0000
  N   N1        1.0  0.39124  0.07637  0.79808  1.0000
  N   N2        1.0  0.89127  0.42362  0.20192  1.0000
  N   N3        1.0  0.60875  0.92363  0.20192  1.0000
  N   N4        1.0  0.10874  0.57638  0.79807  1.0000
  N   N5        1.0  0.21797  0.06345  0.86037  1.0000
  N   N6        1.0  0.71800  0.43654  0.13963  1.0000
  N   N7        1.0  0.78203  0.93656  0.13963  1.0000
  N   N8        1.0  0.28199  0.56347  0.86037  1.0000
  N   N9        1.0  0.07482  0.04610  0.77777  1.0000
  N   N10       1.0  0.57485  0.45389  0.22224  1.0000
  N   N11       1.0  0.92518  0.95390  0.22223  1.0000
  N   N12       1.0  0.42515  0.54611  0.77777  1.0000
  N   N13       1.0  0.15304  0.04690  0.66265  1.0000
  N   N14       1.0  0.65306  0.45309  0.33735  1.0000
  N   N15       1.0  0.84696  0.95309  0.33735  1.0000
  N   N16       1.0  0.34694  0.54690  0.66265  1.0000
  Cl  Cl1       1.0  0.21391  0.75152  0.41446  1.0000
  Cl  Cl2       1.0  0.71391  0.74847  0.58554  1.0000
  Cl  Cl3       1.0  0.78610  0.24848  0.58554  1.0000
  Cl  Cl4       1.0  0.28610  0.25152  0.41446  1.0000
