data_image0
_chemical_formula_structural       Hg2H16C16N8
_chemical_formula_sum              "Hg2 H16 C16 N8"
_cell_length_a       5.89292
_cell_length_b       9.10795
_cell_length_c       9.61819
_cell_angle_alpha    118.293
_cell_angle_beta     102.394
_cell_angle_gamma    90.0663

_space_group_name_H-M_alt    "P 1"
_space_group_IT_number       1

loop_
  _space_group_symop_operation_xyz
  'x, y, z'

loop_
  _atom_site_type_symbol
  _atom_site_label
  _atom_site_symmetry_multiplicity
  _atom_site_fract_x
  _atom_site_fract_y
  _atom_site_fract_z
  _atom_site_occupancy
  Hg  Hg1       1.0  0.25021  0.86780  0.99993  1.0000
  Hg  Hg2       1.0  0.74977  0.13221  0.00007  1.0000
  H   H1        1.0  0.29477  0.86532  0.62775  1.0000
  H   H2        1.0  0.20470  0.23721  0.37202  1.0000
  H   H3        1.0  0.70524  0.13467  0.37227  1.0000
  H   H4        1.0  0.79526  0.76280  0.62798  1.0000
  H   H5        1.0  0.63720  0.28345  0.79638  1.0000
  H   H6        1.0  0.86400  0.48674  0.20385  1.0000
  H   H7        1.0  0.36279  0.71653  0.20360  1.0000
  H   H8        1.0  0.13604  0.51325  0.79612  1.0000
  H   H9        1.0  0.51997  0.13603  0.58876  1.0000
  H   H10       1.0  0.98021  0.54737  0.41177  1.0000
  H   H11       1.0  0.48001  0.86395  0.41122  1.0000
  H   H12       1.0  0.01983  0.45262  0.58825  1.0000
  H   H13       1.0  0.73354  0.30270  0.64256  1.0000
  H   H14       1.0  0.76757  0.66011  0.35739  1.0000
  H   H15       1.0  0.26643  0.69732  0.35742  1.0000
  H   H16       1.0  0.23244  0.33992  0.64261  1.0000
  C   C1        1.0  0.00621  0.01173  0.58103  1.0000
  C   C2        1.0  0.49375  0.43069  0.41895  1.0000
  C   C3        1.0  0.99379  0.98828  0.41896  1.0000
  C   C4        1.0  0.50626  0.56933  0.58109  1.0000
  C   C5        1.0  0.15805  0.94413  0.66535  1.0000
  C   C6        1.0  0.34159  0.27855  0.33451  1.0000
  C   C7        1.0  0.84195  0.05588  0.33462  1.0000
  C   C8        1.0  0.65842  0.72145  0.66550  1.0000
  C   C9        1.0  0.87091  0.10734  0.69078  1.0000
  C   C10       1.0  0.62922  0.41664  0.30934  1.0000
  C   C11       1.0  0.12913  0.89265  0.30926  1.0000
  C   C12       1.0  0.37070  0.58331  0.69064  1.0000
  C   C13       1.0  0.68180  0.21209  0.67836  1.0000
  C   C14       1.0  0.81903  0.53372  0.32183  1.0000
  C   C15       1.0  0.31823  0.78788  0.32163  1.0000
  C   C16       1.0  0.18096  0.46626  0.67816  1.0000
  N   N1        1.0  0.11728  0.99200  0.81232  1.0000
  N   N2        1.0  0.38239  0.17941  0.18758  1.0000
  N   N3        1.0  0.88272  0.00802  0.18769  1.0000
  N   N4        1.0  0.61763  0.82061  0.81240  1.0000
  N   N5        1.0  0.94441  0.09250  0.82743  1.0000
  N   N6        1.0  0.55553  0.26501  0.17271  1.0000
  N   N7        1.0  0.05557  0.90751  0.17264  1.0000
  N   N8        1.0  0.44450  0.73499  0.82726  1.0000
