data_image0
_chemical_formula_structural       Co2H38C36N10O8
_chemical_formula_sum              "Co2 H38 C36 N10 O8"
_cell_length_a       9.1118
_cell_length_b       9.89574
_cell_length_c       11.2365
_cell_angle_alpha    73.6074
_cell_angle_beta     81.9606
_cell_angle_gamma    64.8416

_space_group_name_H-M_alt    "P 1"
_space_group_IT_number       1

loop_
  _space_group_symop_operation_xyz
  'x, y, z'

loop_
  _atom_site_type_symbol
  _atom_site_label
  _atom_site_symmetry_multiplicity
  _atom_site_fract_x
  _atom_site_fract_y
  _atom_site_fract_z
  _atom_site_occupancy
  Co  Co1       1.0  0.80788  0.69684  0.38997  1.0000
  Co  Co2       1.0  0.19211  0.30319  0.61008  1.0000
  H   H1        1.0  0.70143  0.88737  0.57518  1.0000
  H   H2        1.0  0.29856  0.11266  0.42485  1.0000
  H   H3        1.0  0.51491  0.94064  0.94036  1.0000
  H   H4        1.0  0.48506  0.05938  0.05966  1.0000
  H   H5        1.0  0.94583  0.54329  0.89770  1.0000
  H   H6        1.0  0.05413  0.45672  0.10234  1.0000
  H   H7        1.0  0.79674  0.36255  0.53732  1.0000
  H   H8        1.0  0.20322  0.63746  0.46262  1.0000
  H   H9        1.0  0.54687  0.34563  0.70767  1.0000
  H   H10       1.0  0.45314  0.65438  0.29232  1.0000
  H   H11       1.0  0.47575  0.81227  0.56030  1.0000
  H   H12       1.0  0.52425  0.18775  0.43965  1.0000
  H   H13       1.0  0.31300  0.53247  0.78808  1.0000
  H   H14       1.0  0.68702  0.46753  0.21190  1.0000
  H   H15       1.0  0.22492  0.71901  0.68852  1.0000
  H   H16       1.0  0.77509  0.28102  0.31147  1.0000
  H   H17       1.0  0.36085  0.81996  0.79080  1.0000
  H   H18       1.0  0.63916  0.18004  0.20921  1.0000
  H   H19       1.0  0.48470  0.63393  0.87519  1.0000
  H   H20       1.0  0.51531  0.36607  0.12481  1.0000
  H   H21       1.0  0.11349  0.77222  0.90687  1.0000
  H   H22       1.0  0.88652  0.22777  0.09313  1.0000
  H   H23       1.0  0.25539  0.60365  0.00245  1.0000
  H   H24       1.0  0.74462  0.39635  0.99754  1.0000
  H   H25       1.0  0.37116  0.76752  0.05950  1.0000
  H   H26       1.0  0.62884  0.23248  0.94050  1.0000
  H   H27       1.0  0.22826  0.93407  0.96256  1.0000
  H   H28       1.0  0.77173  0.06593  0.03745  1.0000
  H   H29       1.0  0.03315  0.67231  0.13137  1.0000
  H   H30       1.0  0.96690  0.32765  0.86864  1.0000
  H   H31       1.0  0.93992  0.96354  0.36722  1.0000
  H   H32       1.0  0.06010  0.03640  0.63281  1.0000
  H   H33       1.0  0.17117  0.00716  0.18730  1.0000
  H   H34       1.0  0.82879  0.99286  0.81271  1.0000
  H   H35       1.0  0.66778  0.74836  0.11938  1.0000
  H   H36       1.0  0.33223  0.25161  0.88066  1.0000
  H   H37       1.0  0.83573  0.59075  0.10433  1.0000
  H   H38       1.0  0.16426  0.40925  0.89566  1.0000
  C   C1        1.0  0.84053  0.70819  0.72825  1.0000
  C   C2        1.0  0.15948  0.29183  0.27178  1.0000
  C   C3        1.0  0.71267  0.84658  0.67534  1.0000
  C   C4        1.0  0.28735  0.15344  0.32468  1.0000
  C   C5        1.0  0.59670  0.92882  0.75313  1.0000
  C   C6        1.0  0.40329  0.07119  0.24689  1.0000
  C   C7        1.0  0.60861  0.87617  0.88182  1.0000
  C   C8        1.0  0.39137  0.12385  0.11818  1.0000
  C   C9        1.0  0.73342  0.73504  0.93685  1.0000
  C   C10       1.0  0.26655  0.26498  0.06317  1.0000
  C   C11       1.0  0.96029  0.61503  0.64519  1.0000
  C   C12       1.0  0.03971  0.38498  0.35483  1.0000
  C   C13       1.0  0.45077  0.06831  0.70003  1.0000
  C   C14       1.0  0.54923  0.93167  0.29995  1.0000
  C   C15       1.0  0.69255  0.45311  0.56680  1.0000
  C   C16       1.0  0.30744  0.54690  0.43317  1.0000
  C   C17       1.0  0.84962  0.65356  0.85737  1.0000
  C   C18       1.0  0.15038  0.34646  0.14265  1.0000
  C   C19       1.0  0.57374  0.44260  0.65408  1.0000
  C   C20       1.0  0.42625  0.55741  0.34589  1.0000
  C   C21       1.0  0.53038  0.68793  0.57426  1.0000
  C   C22       1.0  0.46962  0.31208  0.42570  1.0000
  C   C23       1.0  0.33321  0.63685  0.74255  1.0000
  C   C24       1.0  0.66680  0.36317  0.25743  1.0000
  C   C25       1.0  0.36230  0.70591  0.83803  1.0000
  C   C26       1.0  0.63771  0.29409  0.16197  1.0000
  C   C27       1.0  0.23624  0.71965  0.94438  1.0000
  C   C28       1.0  0.76377  0.28034  0.05562  1.0000
  C   C29       1.0  0.24868  0.81841  0.02176  1.0000
  C   C30       1.0  0.75133  0.18158  0.97824  1.0000
  C   C31       1.0  0.03568  0.75914  0.17046  1.0000
  C   C32       1.0  0.96433  0.24084  0.82955  1.0000
  C   C33       1.0  0.99218  0.91091  0.29021  1.0000
  C   C34       1.0  0.00784  0.08906  0.70980  1.0000
  C   C35       1.0  0.10573  0.93418  0.20196  1.0000
  C   C36       1.0  0.89427  0.06580  0.79805  1.0000
  N   N1        1.0  0.66447  0.60649  0.51743  1.0000
  N   N2        1.0  0.33552  0.39352  0.48254  1.0000
  N   N3        1.0  0.47209  0.59226  0.65775  1.0000
  N   N4        1.0  0.52791  0.40775  0.34222  1.0000
  N   N5        1.0  0.13143  0.83747  0.12593  1.0000
  N   N6        1.0  0.86858  0.16252  0.87407  1.0000
  N   N7        1.0  0.94944  0.80128  0.26968  1.0000
  N   N8        1.0  0.05058  0.19869  0.73033  1.0000
  N   N9        1.0  0.73342  0.67634  0.06304  1.0000
  N   N10       1.0  0.26656  0.32365  0.93697  1.0000
  O   O1        1.0  0.07429  0.48749  0.69514  1.0000
  O   O2        1.0  0.92574  0.51251  0.30487  1.0000
  O   O3        1.0  0.94310  0.66855  0.52835  1.0000
  O   O4        1.0  0.05690  0.33142  0.47167  1.0000
  O   O5        1.0  0.40139  0.18883  0.74120  1.0000
  O   O6        1.0  0.59856  0.81117  0.25875  1.0000
  O   O7        1.0  0.37407  0.06399  0.61576  1.0000
  O   O8        1.0  0.62595  0.93598  0.38420  1.0000
