data_image0
_chemical_formula_structural       Fe2Ag4H16C24N16
_chemical_formula_sum              "Fe2 Ag4 H16 C24 N16"
_cell_length_a       6.62193
_cell_length_b       8.69609
_cell_length_c       13.7453
_cell_angle_alpha    87.1401
_cell_angle_beta     82.4417
_cell_angle_gamma    67.6264

_space_group_name_H-M_alt    "P 1"
_space_group_IT_number       1

loop_
  _space_group_symop_operation_xyz
  'x, y, z'

loop_
  _atom_site_type_symbol
  _atom_site_label
  _atom_site_symmetry_multiplicity
  _atom_site_fract_x
  _atom_site_fract_y
  _atom_site_fract_z
  _atom_site_occupancy
  Fe  Fe1       1.0  0.97857  0.01759  0.00454  1.0000
  Fe  Fe2       1.0  0.00395  0.01761  0.49522  1.0000
  Ag  Ag1       1.0  0.48124  0.03729  0.24995  1.0000
  Ag  Ag2       1.0  0.51952  0.96040  0.75005  1.0000
  Ag  Ag3       1.0  0.66395  0.67284  0.24989  1.0000
  Ag  Ag4       1.0  0.33882  0.32261  0.74986  1.0000
  H   H1        1.0  0.48935  0.16671  0.98717  1.0000
  H   H2        1.0  0.34410  0.16655  0.51276  1.0000
  H   H3        1.0  0.51718  0.82023  0.01637  1.0000
  H   H4        1.0  0.66217  0.82012  0.48360  1.0000
  H   H5        1.0  0.17061  0.42073  0.05178  1.0000
  H   H6        1.0  0.40876  0.42076  0.44848  1.0000
  H   H7        1.0  0.83792  0.56504  0.94825  1.0000
  H   H8        1.0  0.59690  0.56496  0.55199  1.0000
  H   H9        1.0  0.24451  0.61215  0.16356  1.0000
  H   H10       1.0  0.14334  0.61244  0.33686  1.0000
  H   H11       1.0  0.75917  0.38176  0.83391  1.0000
  H   H12       1.0  0.85910  0.38206  0.66631  1.0000
  H   H13       1.0  0.90206  0.29445  0.14188  1.0000
  H   H14       1.0  0.80332  0.29480  0.35828  1.0000
  H   H15       1.0  0.10639  0.70963  0.85263  1.0000
  H   H16       1.0  0.18342  0.71041  0.64726  1.0000
  C   C1        1.0  0.16595  0.23481  0.86451  1.0000
  C   C2        1.0  0.59926  0.23474  0.63516  1.0000
  C   C3        1.0  0.82962  0.77164  0.13745  1.0000
  C   C4        1.0  0.39902  0.77179  0.36217  1.0000
  C   C5        1.0  0.50966  0.25239  0.03630  1.0000
  C   C6        1.0  0.23803  0.25241  0.46375  1.0000
  C   C7        1.0  0.49834  0.73740  0.96448  1.0000
  C   C8        1.0  0.76390  0.73745  0.53550  1.0000
  C   C9        1.0  0.33386  0.39377  0.07240  1.0000
  C   C10       1.0  0.27238  0.39393  0.42788  1.0000
  C   C11       1.0  0.67407  0.59632  0.92725  1.0000
  C   C12       1.0  0.72939  0.59644  0.57290  1.0000
  C   C13       1.0  0.37392  0.49737  0.13444  1.0000
  C   C14       1.0  0.12869  0.49764  0.36592  1.0000
  C   C15       1.0  0.63102  0.49691  0.86325  1.0000
  C   C16       1.0  0.87195  0.49724  0.63692  1.0000
  C   C17       1.0  0.25586  0.04658  0.15975  1.0000
  C   C18       1.0  0.69743  0.04677  0.34006  1.0000
  C   C19       1.0  0.73876  0.95713  0.84234  1.0000
  C   C20       1.0  0.30363  0.95738  0.65763  1.0000
  C   C21       1.0  0.73785  0.32396  0.12203  1.0000
  C   C22       1.0  0.93809  0.32424  0.37811  1.0000
  C   C23       1.0  0.27062  0.67517  0.87419  1.0000
  C   C24       1.0  0.05378  0.67573  0.62576  1.0000
  N   N1        1.0  0.57684  0.46018  0.15999  1.0000
  N   N2        1.0  0.96287  0.46055  0.34032  1.0000
  N   N3        1.0  0.42936  0.53710  0.83568  1.0000
  N   N4        1.0  0.03328  0.53767  0.66440  1.0000
  N   N5        1.0  0.14755  0.03367  0.10189  1.0000
  N   N6        1.0  0.81883  0.03376  0.39786  1.0000
  N   N7        1.0  0.82961  0.98493  0.90311  1.0000
  N   N8        1.0  0.18535  0.98506  0.59671  1.0000
  N   N9        1.0  0.08855  0.15915  0.92034  1.0000
  N   N10       1.0  0.75248  0.15902  0.57941  1.0000
  N   N11       1.0  0.88821  0.86183  0.08498  1.0000
  N   N12       1.0  0.25020  0.86188  0.41472  1.0000
  N   N13       1.0  0.71502  0.21698  0.05977  1.0000
  N   N14       1.0  0.06807  0.21705  0.44021  1.0000
  N   N15       1.0  0.29681  0.77528  0.93820  1.0000
  N   N16       1.0  0.92753  0.77554  0.56167  1.0000
