data_image0
_chemical_formula_structural       La2H32C48N4O14
_chemical_formula_sum              "La2 H32 C48 N4 O14"
_cell_length_a       10.3159
_cell_length_b       10.7155
_cell_length_c       11.3395
_cell_angle_alpha    109.139
_cell_angle_beta     93.4907
_cell_angle_gamma    110.427

_space_group_name_H-M_alt    "P 1"
_space_group_IT_number       1

loop_
  _space_group_symop_operation_xyz
  'x, y, z'

loop_
  _atom_site_type_symbol
  _atom_site_label
  _atom_site_symmetry_multiplicity
  _atom_site_fract_x
  _atom_site_fract_y
  _atom_site_fract_z
  _atom_site_occupancy
  La  La1       1.0  0.59098  0.49177  0.33631  1.0000
  La  La2       1.0  0.40902  0.50823  0.66369  1.0000
  H   H1        1.0  0.04211  0.15079  0.11938  1.0000
  H   H2        1.0  0.95788  0.84921  0.88062  1.0000
  H   H3        1.0  0.82814  0.92468  0.06188  1.0000
  H   H4        1.0  0.17185  0.07532  0.93811  1.0000
  H   H5        1.0  0.96856  0.86645  0.39680  1.0000
  H   H6        1.0  0.03144  0.13355  0.60320  1.0000
  H   H7        1.0  0.17939  0.09690  0.45918  1.0000
  H   H8        1.0  0.82061  0.90309  0.54081  1.0000
  H   H9        1.0  0.39113  0.16771  0.61292  1.0000
  H   H10       1.0  0.60888  0.83228  0.38708  1.0000
  H   H11       1.0  0.66142  0.06508  0.35638  1.0000
  H   H12       1.0  0.33858  0.93492  0.64363  1.0000
  H   H13       1.0  0.40412  0.19602  0.06315  1.0000
  H   H14       1.0  0.59588  0.80398  0.93686  1.0000
  H   H15       1.0  0.41484  0.02588  0.85452  1.0000
  H   H16       1.0  0.58516  0.97413  0.14548  1.0000
  H   H17       1.0  0.65109  0.05604  0.79431  1.0000
  H   H18       1.0  0.34891  0.94396  0.20569  1.0000
  H   H19       1.0  0.91275  0.18668  0.85451  1.0000
  H   H20       1.0  0.08725  0.81332  0.14549  1.0000
  H   H21       1.0  0.12607  0.36446  0.01709  1.0000
  H   H22       1.0  0.87393  0.63555  0.98291  1.0000
  H   H23       1.0  0.23339  0.54423  0.23920  1.0000
  H   H24       1.0  0.76661  0.45577  0.76080  1.0000
  H   H25       1.0  0.19425  0.68219  0.45234  1.0000
  H   H26       1.0  0.80575  0.31781  0.54767  1.0000
  H   H27       1.0  0.94857  0.65004  0.48161  1.0000
  H   H28       1.0  0.05144  0.34996  0.51839  1.0000
  H   H29       1.0  0.52364  0.57978  0.12142  1.0000
  H   H30       1.0  0.47636  0.42022  0.87859  1.0000
  H   H31       1.0  0.39147  0.43267  0.07386  1.0000
  H   H32       1.0  0.60852  0.56734  0.92615  1.0000
  C   C1        1.0  0.24801  0.28079  0.34053  1.0000
  C   C2        1.0  0.75199  0.71921  0.65947  1.0000
  C   C3        1.0  0.12358  0.13894  0.29386  1.0000
  C   C4        1.0  0.87642  0.86105  0.70614  1.0000
  C   C5        1.0  0.02581  0.08904  0.18072  1.0000
  C   C6        1.0  0.97418  0.91096  0.81928  1.0000
  C   C7        1.0  0.90561  0.96287  0.14878  1.0000
  C   C8        1.0  0.09438  0.03713  0.85121  1.0000
  C   C9        1.0  0.88342  0.88348  0.22779  1.0000
  C   C10       1.0  0.11657  0.11652  0.77220  1.0000
  C   C11       1.0  0.75389  0.74968  0.19874  1.0000
  C   C12       1.0  0.24610  0.25033  0.80126  1.0000
  C   C13       1.0  0.98500  0.93069  0.33783  1.0000
  C   C14       1.0  0.01499  0.06931  0.66217  1.0000
  C   C15       1.0  0.10300  0.05791  0.37145  1.0000
  C   C16       1.0  0.89700  0.94209  0.62854  1.0000
  C   C17       1.0  0.55698  0.26374  0.45769  1.0000
  C   C18       1.0  0.44302  0.73625  0.54231  1.0000
  C   C19       1.0  0.52867  0.12888  0.48192  1.0000
  C   C20       1.0  0.47133  0.87111  0.51808  1.0000
  C   C21       1.0  0.43835  0.09384  0.56387  1.0000
  C   C22       1.0  0.56165  0.90615  0.43613  1.0000
  C   C23       1.0  0.59058  0.03491  0.41878  1.0000
  C   C24       1.0  0.40942  0.96508  0.58122  1.0000
  C   C25       1.0  0.50524  0.20427  0.03527  1.0000
  C   C26       1.0  0.49477  0.79574  0.96473  1.0000
  C   C27       1.0  0.51169  0.10975  0.91782  1.0000
  C   C28       1.0  0.48831  0.89025  0.08218  1.0000
  C   C29       1.0  0.64165  0.12586  0.88531  1.0000
  C   C30       1.0  0.35834  0.87414  0.11469  1.0000
  C   C31       1.0  0.76503  0.23298  0.97261  1.0000
  C   C32       1.0  0.23497  0.76702  0.02738  1.0000
  C   C33       1.0  0.90336  0.25306  0.94697  1.0000
  C   C34       1.0  0.09664  0.74694  0.05303  1.0000
  C   C35       1.0  0.02076  0.35121  0.03655  1.0000
  C   C36       1.0  0.97924  0.64879  0.96346  1.0000
  C   C37       1.0  0.00863  0.43650  0.15906  1.0000
  C   C38       1.0  0.99137  0.56350  0.84094  1.0000
  C   C39       1.0  0.12760  0.53287  0.25670  1.0000
  C   C40       1.0  0.87240  0.46713  0.74330  1.0000
  C   C41       1.0  0.10676  0.60915  0.37318  1.0000
  C   C42       1.0  0.89324  0.39085  0.62683  1.0000
  C   C43       1.0  0.96869  0.59090  0.39100  1.0000
  C   C44       1.0  0.03131  0.40910  0.60901  1.0000
  C   C45       1.0  0.87249  0.42335  0.18636  1.0000
  C   C46       1.0  0.12751  0.57665  0.81364  1.0000
  C   C47       1.0  0.74857  0.32068  0.09091  1.0000
  C   C48       1.0  0.25143  0.67932  0.90910  1.0000
  N   N1        1.0  0.61910  0.30771  0.11865  1.0000
  N   N2        1.0  0.38091  0.69229  0.88136  1.0000
  N   N3        1.0  0.85446  0.50135  0.30092  1.0000
  N   N4        1.0  0.14555  0.49865  0.69908  1.0000
  O   O1        1.0  0.33793  0.30496  0.27064  1.0000
  O   O2        1.0  0.66207  0.69505  0.72937  1.0000
  O   O3        1.0  0.44999  0.51452  0.15174  1.0000
  O   O4        1.0  0.55002  0.48548  0.84826  1.0000
  O   O5        1.0  0.67363  0.69071  0.08949  1.0000
  O   O6        1.0  0.32637  0.30929  0.91051  1.0000
  O   O7        1.0  0.72961  0.70344  0.28923  1.0000
  O   O8        1.0  0.27039  0.29656  0.71077  1.0000
  O   O9        1.0  0.62205  0.28065  0.36898  1.0000
  O   O10       1.0  0.37795  0.71934  0.63102  1.0000
  O   O11       1.0  0.25420  0.36621  0.45162  1.0000
  O   O12       1.0  0.74579  0.63379  0.54838  1.0000
  O   O13       1.0  0.51360  0.35708  0.52538  1.0000
  O   O14       1.0  0.48639  0.64291  0.47462  1.0000
