data_image0
_chemical_formula_structural       Zn4P4H20C4N4O12
_chemical_formula_sum              "Zn4 P4 H20 C4 N4 O12"
_cell_length_a       5.21573
_cell_length_b       8.43881
_cell_length_c       10.7749
_cell_angle_alpha    90
_cell_angle_beta     89.9978
_cell_angle_gamma    100.784

_space_group_name_H-M_alt    "P 1"
_space_group_IT_number       1

loop_
  _space_group_symop_operation_xyz
  'x, y, z'

loop_
  _atom_site_type_symbol
  _atom_site_label
  _atom_site_symmetry_multiplicity
  _atom_site_fract_x
  _atom_site_fract_y
  _atom_site_fract_z
  _atom_site_occupancy
  Zn  Zn1       1.0  0.98403  0.18090  0.37046  1.0000
  Zn  Zn2       1.0  0.51600  0.31913  0.87047  1.0000
  Zn  Zn3       1.0  0.01598  0.81912  0.62954  1.0000
  Zn  Zn4       1.0  0.48399  0.68086  0.12954  1.0000
  P   P1        1.0  0.76726  0.37506  0.14332  1.0000
  P   P2        1.0  0.73274  0.12495  0.64333  1.0000
  P   P3        1.0  0.23274  0.62493  0.85667  1.0000
  P   P4        1.0  0.26726  0.87506  0.35668  1.0000
  H   H1        1.0  0.99820  0.48722  0.16479  1.0000
  H   H2        1.0  0.50177  0.01278  0.66478  1.0000
  H   H3        1.0  0.00180  0.51277  0.83520  1.0000
  H   H4        1.0  0.49824  0.98721  0.33522  1.0000
  H   H5        1.0  0.46256  0.25246  0.42083  1.0000
  H   H6        1.0  0.03745  0.24752  0.92085  1.0000
  H   H7        1.0  0.53745  0.74755  0.57917  1.0000
  H   H8        1.0  0.96253  0.75247  0.07916  1.0000
  H   H9        1.0  0.39044  0.38067  0.31706  1.0000
  H   H10       1.0  0.10958  0.11935  0.81706  1.0000
  H   H11       1.0  0.60956  0.61933  0.68295  1.0000
  H   H12       1.0  0.89039  0.88066  0.18294  1.0000
  H   H13       1.0  0.31648  0.39025  0.58936  1.0000
  H   H14       1.0  0.18350  0.10972  0.08936  1.0000
  H   H15       1.0  0.68355  0.60976  0.41065  1.0000
  H   H16       1.0  0.81647  0.89025  0.91063  1.0000
  H   H17       1.0  0.22149  0.53055  0.48324  1.0000
  H   H18       1.0  0.27850  0.96943  0.98323  1.0000
  H   H19       1.0  0.77855  0.46947  0.51676  1.0000
  H   H20       1.0  0.72148  0.03055  0.01675  1.0000
  C   C1        1.0  0.36086  0.45029  0.49931  1.0000
  C   C2        1.0  0.13912  0.04968  0.99930  1.0000
  C   C3        1.0  0.63916  0.54973  0.50070  1.0000
  C   C4        1.0  0.86087  0.95030  0.00069  1.0000
  N   N1        1.0  0.32974  0.32568  0.40090  1.0000
  N   N2        1.0  0.17021  0.17429  0.90093  1.0000
  N   N3        1.0  0.67028  0.67433  0.59911  1.0000
  N   N4        1.0  0.82976  0.82571  0.09907  1.0000
  O   O1        1.0  0.76911  0.23169  0.23050  1.0000
  O   O2        1.0  0.73088  0.26832  0.73054  1.0000
  O   O3        1.0  0.23090  0.76831  0.76949  1.0000
  O   O4        1.0  0.26911  0.73168  0.26947  1.0000
  O   O5        1.0  0.53501  0.45995  0.17145  1.0000
  O   O6        1.0  0.96497  0.04003  0.67147  1.0000
  O   O7        1.0  0.46499  0.54004  0.82854  1.0000
  O   O8        1.0  0.03503  0.95998  0.32854  1.0000
  O   O9        1.0  0.77045  0.32603  0.00583  1.0000
  O   O10       1.0  0.72957  0.17399  0.50583  1.0000
  O   O11       1.0  0.22954  0.67395  0.99416  1.0000
  O   O12       1.0  0.27044  0.82603  0.49416  1.0000
