data_image0
_chemical_formula_structural       Zn8P8H40C8N8O24
_chemical_formula_sum              "Zn8 P8 H40 C8 N8 O24"
_cell_length_a       7.87224
_cell_length_b       8.26724
_cell_length_c       15.7777
_cell_angle_alpha    106.103
_cell_angle_beta     89.9997
_cell_angle_gamma    90.0002

_space_group_name_H-M_alt    "P 1"
_space_group_IT_number       1

loop_
  _space_group_symop_operation_xyz
  'x, y, z'

loop_
  _atom_site_type_symbol
  _atom_site_label
  _atom_site_symmetry_multiplicity
  _atom_site_fract_x
  _atom_site_fract_y
  _atom_site_fract_z
  _atom_site_occupancy
  Zn  Zn1       1.0  0.61044  0.89118  0.16842  1.0000
  Zn  Zn2       1.0  0.11044  0.10882  0.33158  1.0000
  Zn  Zn3       1.0  0.38956  0.10881  0.83158  1.0000
  Zn  Zn4       1.0  0.88956  0.89118  0.66842  1.0000
  Zn  Zn5       1.0  0.81108  0.39536  0.18319  1.0000
  Zn  Zn6       1.0  0.31108  0.60464  0.31681  1.0000
  Zn  Zn7       1.0  0.18892  0.60464  0.81681  1.0000
  Zn  Zn8       1.0  0.68892  0.39536  0.68319  1.0000
  P   P1        1.0  0.97415  0.01756  0.13332  1.0000
  P   P2        1.0  0.47414  0.98245  0.36668  1.0000
  P   P3        1.0  0.02585  0.98244  0.86668  1.0000
  P   P4        1.0  0.52586  0.01756  0.63332  1.0000
  P   P5        1.0  0.45100  0.51581  0.12647  1.0000
  P   P6        1.0  0.95099  0.48417  0.37353  1.0000
  P   P7        1.0  0.54900  0.48419  0.87353  1.0000
  P   P8        1.0  0.04901  0.51583  0.62647  1.0000
  H   H1        1.0  0.06123  0.94281  0.05407  1.0000
  H   H2        1.0  0.56122  0.05718  0.44593  1.0000
  H   H3        1.0  0.93877  0.05719  0.94593  1.0000
  H   H4        1.0  0.43878  0.94282  0.55408  1.0000
  H   H5        1.0  0.37709  0.42161  0.04686  1.0000
  H   H6        1.0  0.87709  0.57838  0.45314  1.0000
  H   H7        1.0  0.62291  0.57838  0.95314  1.0000
  H   H8        1.0  0.12291  0.42162  0.54686  1.0000
  H   H9        1.0  0.34436  0.05272  0.15661  1.0000
  H   H10       1.0  0.84436  0.94728  0.34339  1.0000
  H   H11       1.0  0.65564  0.94728  0.84339  1.0000
  H   H12       1.0  0.15564  0.05272  0.65661  1.0000
  H   H13       1.0  0.50596  0.16738  0.14101  1.0000
  H   H14       1.0  0.00595  0.83263  0.35899  1.0000
  H   H15       1.0  0.49405  0.83262  0.85899  1.0000
  H   H16       1.0  0.99405  0.16738  0.64101  1.0000
  H   H17       1.0  0.36472  0.87131  0.00817  1.0000
  H   H18       1.0  0.86472  0.12869  0.49183  1.0000
  H   H19       1.0  0.63529  0.12869  0.99184  1.0000
  H   H20       1.0  0.13528  0.87131  0.50816  1.0000
  H   H21       1.0  0.32471  0.08442  0.01345  1.0000
  H   H22       1.0  0.82470  0.91558  0.48656  1.0000
  H   H23       1.0  0.67530  0.91557  0.98655  1.0000
  H   H24       1.0  0.17530  0.08442  0.51344  1.0000
  H   H25       1.0  0.90740  0.65244  0.13316  1.0000
  H   H26       1.0  0.40740  0.34757  0.36684  1.0000
  H   H27       1.0  0.09260  0.34756  0.86684  1.0000
  H   H28       1.0  0.59260  0.65243  0.63316  1.0000
  H   H29       1.0  0.07538  0.54374  0.14720  1.0000
  H   H30       1.0  0.57537  0.45626  0.35280  1.0000
  H   H31       1.0  0.92462  0.45626  0.85280  1.0000
  H   H32       1.0  0.42463  0.54374  0.64720  1.0000
  H   H33       1.0  0.82562  0.41840  0.00284  1.0000
  H   H34       1.0  0.32563  0.58162  0.49716  1.0000
  H   H35       1.0  0.17437  0.58161  0.99716  1.0000
  H   H36       1.0  0.67437  0.41838  0.50284  1.0000
  H   H37       1.0  0.02262  0.32568  0.01571  1.0000
  H   H38       1.0  0.52264  0.67433  0.48429  1.0000
  H   H39       1.0  0.97738  0.67433  0.98429  1.0000
  H   H40       1.0  0.47736  0.32567  0.51571  1.0000
  C   C1        1.0  0.42062  0.99788  0.02724  1.0000
  C   C2        1.0  0.92062  0.00212  0.47276  1.0000
  C   C3        1.0  0.57938  0.00211  0.97276  1.0000
  C   C4        1.0  0.07938  0.99788  0.52724  1.0000
  C   C5        1.0  0.95691  0.44667  0.02613  1.0000
  C   C6        1.0  0.45692  0.55334  0.47387  1.0000
  C   C7        1.0  0.04308  0.55334  0.97387  1.0000
  C   C8        1.0  0.54308  0.44666  0.52613  1.0000
  N   N1        1.0  0.45875  0.04557  0.12323  1.0000
  N   N2        1.0  0.95874  0.95443  0.37677  1.0000
  N   N3        1.0  0.54126  0.95443  0.87677  1.0000
  N   N4        1.0  0.04126  0.04558  0.62323  1.0000
  N   N5        1.0  0.95286  0.53076  0.12222  1.0000
  N   N6        1.0  0.45286  0.46924  0.37778  1.0000
  N   N7        1.0  0.04714  0.46924  0.87778  1.0000
  N   N8        1.0  0.54714  0.53076  0.62222  1.0000
  O   O1        1.0  0.55052  0.65794  0.10451  1.0000
  O   O2        1.0  0.05052  0.34206  0.39548  1.0000
  O   O3        1.0  0.44947  0.34206  0.89549  1.0000
  O   O4        1.0  0.94949  0.65794  0.60452  1.0000
  O   O5        1.0  0.85871  0.87892  0.15039  1.0000
  O   O6        1.0  0.35872  0.12108  0.34961  1.0000
  O   O7        1.0  0.14129  0.12108  0.84961  1.0000
  O   O8        1.0  0.64129  0.87892  0.65040  1.0000
  O   O9        1.0  0.11566  0.07191  0.20288  1.0000
  O   O10       1.0  0.61566  0.92809  0.29712  1.0000
  O   O11       1.0  0.88433  0.92809  0.79712  1.0000
  O   O12       1.0  0.38434  0.07191  0.70288  1.0000
  O   O13       1.0  0.56489  0.39300  0.15867  1.0000
  O   O14       1.0  0.06489  0.60700  0.34132  1.0000
  O   O15       1.0  0.43511  0.60700  0.84133  1.0000
  O   O16       1.0  0.93511  0.39300  0.65867  1.0000
  O   O17       1.0  0.87090  0.16274  0.11738  1.0000
  O   O18       1.0  0.37089  0.83726  0.38262  1.0000
  O   O19       1.0  0.12909  0.83726  0.88262  1.0000
  O   O20       1.0  0.62911  0.16274  0.61738  1.0000
  O   O21       1.0  0.30069  0.57804  0.19021  1.0000
  O   O22       1.0  0.80069  0.42196  0.30979  1.0000
  O   O23       1.0  0.69931  0.42196  0.80979  1.0000
  O   O24       1.0  0.19931  0.57804  0.69021  1.0000
