data_image0
_chemical_formula_structural       Ag2H24C34N14O4
_chemical_formula_sum              "Ag2 H24 C34 N14 O4"
_cell_length_a       9.00457
_cell_length_b       9.34016
_cell_length_c       12.8597
_cell_angle_alpha    81.7432
_cell_angle_beta     90.4114
_cell_angle_gamma    67.8721

_space_group_name_H-M_alt    "P 1"
_space_group_IT_number       1

loop_
  _space_group_symop_operation_xyz
  'x, y, z'

loop_
  _atom_site_type_symbol
  _atom_site_label
  _atom_site_symmetry_multiplicity
  _atom_site_fract_x
  _atom_site_fract_y
  _atom_site_fract_z
  _atom_site_occupancy
  Ag  Ag1       1.0  0.60548  0.89441  0.59343  1.0000
  Ag  Ag2       1.0  0.39451  0.10559  0.40656  1.0000
  H   H1        1.0  0.13222  0.45942  0.42563  1.0000
  H   H2        1.0  0.86778  0.54057  0.57437  1.0000
  H   H3        1.0  0.27590  0.27686  0.15212  1.0000
  H   H4        1.0  0.72410  0.72314  0.84788  1.0000
  H   H5        1.0  0.10057  0.53038  0.03933  1.0000
  H   H6        1.0  0.89944  0.46963  0.96067  1.0000
  H   H7        1.0  0.93773  0.75413  0.12453  1.0000
  H   H8        1.0  0.06227  0.24588  0.87548  1.0000
  H   H9        1.0  0.98990  0.14509  0.39923  1.0000
  H   H10       1.0  0.01010  0.85489  0.60078  1.0000
  H   H11       1.0  0.88967  0.43372  0.40069  1.0000
  H   H12       1.0  0.11034  0.56627  0.59932  1.0000
  H   H13       1.0  0.59155  0.58717  0.39397  1.0000
  H   H14       1.0  0.40846  0.41283  0.60602  1.0000
  H   H15       1.0  0.40978  0.44040  0.40153  1.0000
  H   H16       1.0  0.59023  0.55960  0.59846  1.0000
  H   H17       1.0  0.20227  0.88170  0.27518  1.0000
  H   H18       1.0  0.79773  0.11829  0.72481  1.0000
  H   H19       1.0  0.26877  0.02859  0.11738  1.0000
  H   H20       1.0  0.73122  0.97142  0.88261  1.0000
  H   H21       1.0  0.79040  0.25130  0.00854  1.0000
  H   H22       1.0  0.20958  0.74871  0.99147  1.0000
  H   H23       1.0  0.70223  0.10609  0.16099  1.0000
  H   H24       1.0  0.29776  0.89391  0.83902  1.0000
  C   C1        1.0  0.12353  0.47980  0.33956  1.0000
  C   C2        1.0  0.87647  0.52019  0.66044  1.0000
  C   C3        1.0  0.20189  0.37805  0.18700  1.0000
  C   C4        1.0  0.79811  0.62195  0.81301  1.0000
  C   C5        1.0  0.10595  0.51895  0.12492  1.0000
  C   C6        1.0  0.89405  0.48105  0.87508  1.0000
  C   C7        1.0  0.01462  0.64511  0.17330  1.0000
  C   C8        1.0  0.98538  0.35489  0.82671  1.0000
  C   C9        1.0  0.02429  0.62611  0.28357  1.0000
  C   C10       1.0  0.97571  0.37388  0.71643  1.0000
  C   C11       1.0  0.93065  0.74829  0.34303  1.0000
  C   C12       1.0  0.06935  0.25171  0.65698  1.0000
  C   C13       1.0  0.80434  0.97552  0.39406  1.0000
  C   C14       1.0  0.19565  0.02448  0.60594  1.0000
  C   C15       1.0  0.74958  0.14362  0.39909  1.0000
  C   C16       1.0  0.25041  0.85638  0.60091  1.0000
  C   C17       1.0  0.86166  0.21441  0.39913  1.0000
  C   C18       1.0  0.13834  0.78558  0.60088  1.0000
  C   C19       1.0  0.80591  0.37519  0.39935  1.0000
  C   C20       1.0  0.19409  0.62480  0.60066  1.0000
  C   C21       1.0  0.64124  0.46015  0.39783  1.0000
  C   C22       1.0  0.35876  0.53984  0.60217  1.0000
  C   C23       1.0  0.53917  0.37873  0.40065  1.0000
  C   C24       1.0  0.46084  0.62127  0.59935  1.0000
  C   C25       1.0  0.94609  0.98571  0.22840  1.0000
  C   C26       1.0  0.05392  0.01428  0.77160  1.0000
  C   C27       1.0  0.10734  0.96065  0.21719  1.0000
  C   C28       1.0  0.89267  0.03935  0.78280  1.0000
  C   C29       1.0  0.14386  0.04458  0.12904  1.0000
  C   C30       1.0  0.85614  0.95542  0.87096  1.0000
  C   C31       1.0  0.87849  0.16849  0.06938  1.0000
  C   C32       1.0  0.12151  0.83152  0.93062  1.0000
  C   C33       1.0  0.82789  0.09031  0.15363  1.0000
  C   C34       1.0  0.17211  0.90969  0.84638  1.0000
  N   N1        1.0  0.20945  0.35799  0.29278  1.0000
  N   N2        1.0  0.79055  0.64200  0.70723  1.0000
  N   N3        1.0  0.85985  0.72366  0.43014  1.0000
  N   N4        1.0  0.14014  0.27634  0.56986  1.0000
  N   N5        1.0  0.78145  0.86578  0.46195  1.0000
  N   N6        1.0  0.21855  0.13422  0.53805  1.0000
  N   N7        1.0  0.89953  0.90602  0.31787  1.0000
  N   N8        1.0  0.10047  0.09397  0.68213  1.0000
  N   N9        1.0  0.59032  0.22380  0.40172  1.0000
  N   N10       1.0  0.40968  0.77621  0.59827  1.0000
  N   N11       1.0  0.03263  0.14765  0.05646  1.0000
  N   N12       1.0  0.96737  0.85236  0.94354  1.0000
  N   N13       1.0  0.47682  0.13015  0.73858  1.0000
  N   N14       1.0  0.52318  0.86986  0.26141  1.0000
  O   O1        1.0  0.47939  0.99295  0.76425  1.0000
  O   O2        1.0  0.52058  0.00706  0.23572  1.0000
  O   O3        1.0  0.54246  0.15151  0.65332  1.0000
  O   O4        1.0  0.45755  0.84849  0.34667  1.0000
