data_image0
_chemical_formula_structural       Ag4H24C12N12O8
_chemical_formula_sum              "Ag4 H24 C12 N12 O8"
_cell_length_a       6.33793
_cell_length_b       6.77622
_cell_length_c       12.8445
_cell_angle_alpha    89.9999
_cell_angle_beta     89.9998
_cell_angle_gamma    89.9997

_space_group_name_H-M_alt    "P 1"
_space_group_IT_number       1

loop_
  _space_group_symop_operation_xyz
  'x, y, z'

loop_
  _atom_site_type_symbol
  _atom_site_label
  _atom_site_symmetry_multiplicity
  _atom_site_fract_x
  _atom_site_fract_y
  _atom_site_fract_z
  _atom_site_occupancy
  Ag  Ag1       1.0  0.50000  0.34859  0.75000  1.0000
  Ag  Ag2       1.0  0.50000  0.65141  0.24999  1.0000
  Ag  Ag3       1.0  0.00001  1.00000  0.50000  1.0000
  Ag  Ag4       1.0  0.00002  0.00000  0.00000  1.0000
  H   H1        1.0  0.66973  0.79738  0.65539  1.0000
  H   H2        1.0  0.33026  0.79736  0.84461  1.0000
  H   H3        1.0  0.66974  0.20263  0.34461  1.0000
  H   H4        1.0  0.33027  0.20263  0.15539  1.0000
  H   H5        1.0  0.33027  0.20263  0.34461  1.0000
  H   H6        1.0  0.66974  0.20263  0.15539  1.0000
  H   H7        1.0  0.33026  0.79736  0.65539  1.0000
  H   H8        1.0  0.66973  0.79738  0.84461  1.0000
  H   H9        1.0  0.80936  0.60938  0.58718  1.0000
  H   H10       1.0  0.19062  0.60937  0.91282  1.0000
  H   H11       1.0  0.80937  0.39062  0.41282  1.0000
  H   H12       1.0  0.19063  0.39062  0.08718  1.0000
  H   H13       1.0  0.19062  0.39062  0.41282  1.0000
  H   H14       1.0  0.80938  0.39062  0.08718  1.0000
  H   H15       1.0  0.19061  0.60937  0.58718  1.0000
  H   H16       1.0  0.80936  0.60938  0.91283  1.0000
  H   H17       1.0  0.99998  0.36167  0.81992  1.0000
  H   H18       1.0  0.99998  0.36167  0.68008  1.0000
  H   H19       1.0  0.00000  0.63833  0.18008  1.0000
  H   H20       1.0  0.00000  0.63833  0.31992  1.0000
  H   H21       1.0  0.14209  0.04791  0.75000  1.0000
  H   H22       1.0  0.85792  0.04792  0.75000  1.0000
  H   H23       1.0  0.14209  0.95208  0.25000  1.0000
  H   H24       1.0  0.85792  0.95208  0.25000  1.0000
  C   C1        1.0  0.80988  0.70267  0.65683  1.0000
  C   C2        1.0  0.19010  0.70265  0.84318  1.0000
  C   C3        1.0  0.80989  0.29734  0.34317  1.0000
  C   C4        1.0  0.19011  0.29734  0.15683  1.0000
  C   C5        1.0  0.19011  0.29734  0.34318  1.0000
  C   C6        1.0  0.80990  0.29733  0.15683  1.0000
  C   C7        1.0  0.19010  0.70265  0.65682  1.0000
  C   C8        1.0  0.80988  0.70268  0.84317  1.0000
  C   C9        1.0  0.99998  0.45430  0.75000  1.0000
  C   C10       1.0  0.00000  0.54570  0.25000  1.0000
  C   C11       1.0  0.99999  0.95519  0.75000  1.0000
  C   C12       1.0  0.00000  0.04481  0.25000  1.0000
  N   N1        1.0  0.80771  0.57740  0.75000  1.0000
  N   N2        1.0  0.19227  0.57740  0.75000  1.0000
  N   N3        1.0  0.80772  0.42260  0.25000  1.0000
  N   N4        1.0  0.19228  0.42260  0.25000  1.0000
  N   N5        1.0  0.00000  0.83149  0.65437  1.0000
  N   N6        1.0  0.00000  0.83149  0.84563  1.0000
  N   N7        1.0  0.00000  0.16850  0.34563  1.0000
  N   N8        1.0  0.00001  0.16851  0.15437  1.0000
  N   N9        1.0  0.50001  0.20406  0.53323  1.0000
  N   N10       1.0  0.50000  0.20405  0.96678  1.0000
  N   N11       1.0  0.50000  0.79594  0.46675  1.0000
  N   N12       1.0  0.50000  0.79594  0.03322  1.0000
  O   O1        1.0  0.33116  0.22892  0.58502  1.0000
  O   O2        1.0  0.66886  0.22893  0.91499  1.0000
  O   O3        1.0  0.33117  0.77109  0.41498  1.0000
  O   O4        1.0  0.66886  0.77107  0.08501  1.0000
  O   O5        1.0  0.66884  0.77108  0.41499  1.0000
  O   O6        1.0  0.33114  0.77107  0.08501  1.0000
  O   O7        1.0  0.66886  0.22893  0.58501  1.0000
  O   O8        1.0  0.33114  0.22893  0.91499  1.0000
