data_image0
_chemical_formula_structural       Ag4H24C16N8O8
_chemical_formula_sum              "Ag4 H24 C16 N8 O8"
_cell_length_a       6.42182
_cell_length_b       6.71998
_cell_length_c       12.291
_cell_angle_alpha    90.0002
_cell_angle_beta     95.8033
_cell_angle_gamma    89.9997

_space_group_name_H-M_alt    "P 1"
_space_group_IT_number       1

loop_
  _space_group_symop_operation_xyz
  'x, y, z'

loop_
  _atom_site_type_symbol
  _atom_site_label
  _atom_site_symmetry_multiplicity
  _atom_site_fract_x
  _atom_site_fract_y
  _atom_site_fract_z
  _atom_site_occupancy
  Ag  Ag1       1.0  0.00000  1.00000  0.00000  1.0000
  Ag  Ag2       1.0  1.00000  0.00000  0.50000  1.0000
  Ag  Ag3       1.0  0.50000  0.32594  0.25000  1.0000
  Ag  Ag4       1.0  0.50000  0.67406  0.75000  1.0000
  H   H1        1.0  0.85956  0.99662  0.24880  1.0000
  H   H2        1.0  0.14044  0.99662  0.25120  1.0000
  H   H3        1.0  0.14045  0.00339  0.75120  1.0000
  H   H4        1.0  0.85956  0.00338  0.74880  1.0000
  H   H5        1.0  0.78099  0.55739  0.07717  1.0000
  H   H6        1.0  0.21902  0.55739  0.42283  1.0000
  H   H7        1.0  0.21901  0.44261  0.92283  1.0000
  H   H8        1.0  0.78098  0.44261  0.57718  1.0000
  H   H9        1.0  0.65855  0.74913  0.14954  1.0000
  H   H10       1.0  0.34145  0.74913  0.35046  1.0000
  H   H11       1.0  0.34145  0.25087  0.85046  1.0000
  H   H12       1.0  0.65855  0.25087  0.64954  1.0000
  H   H13       1.0  0.30860  0.74945  0.15345  1.0000
  H   H14       1.0  0.69141  0.74945  0.34655  1.0000
  H   H15       1.0  0.69141  0.25055  0.84655  1.0000
  H   H16       1.0  0.30860  0.25056  0.65345  1.0000
  H   H17       1.0  0.16152  0.55719  0.08068  1.0000
  H   H18       1.0  0.83849  0.55719  0.41932  1.0000
  H   H19       1.0  0.83848  0.44281  0.91933  1.0000
  H   H20       1.0  0.16151  0.44281  0.58068  1.0000
  H   H21       1.0  0.98742  0.30721  0.17651  1.0000
  H   H22       1.0  0.01259  0.30721  0.32349  1.0000
  H   H23       1.0  0.01258  0.69279  0.82349  1.0000
  H   H24       1.0  0.98741  0.69279  0.67652  1.0000
  C   C1        1.0  0.00000  0.90365  0.25000  1.0000
  C   C2        1.0  0.00000  0.09635  0.75000  1.0000
  C   C3        1.0  0.79667  0.65283  0.14995  1.0000
  C   C4        1.0  0.20333  0.65284  0.35005  1.0000
  C   C5        1.0  0.20333  0.34717  0.85005  1.0000
  C   C6        1.0  0.79667  0.34716  0.64995  1.0000
  C   C7        1.0  0.17182  0.65202  0.15362  1.0000
  C   C8        1.0  0.82818  0.65202  0.34638  1.0000
  C   C9        1.0  0.82818  0.34798  0.84638  1.0000
  C   C10       1.0  0.17182  0.34798  0.65362  1.0000
  C   C11       1.0  0.00000  0.40072  0.25000  1.0000
  C   C12       1.0  0.99999  0.59928  0.75000  1.0000
  C   C13       1.0  0.51222  0.07859  0.04794  1.0000
  C   C14       1.0  0.48778  0.07857  0.45206  1.0000
  C   C15       1.0  0.48778  0.92142  0.95206  1.0000
  C   C16       1.0  0.51221  0.92141  0.54793  1.0000
  N   N1        1.0  0.98419  0.77983  0.14984  1.0000
  N   N2        1.0  0.01581  0.77984  0.35016  1.0000
  N   N3        1.0  0.01581  0.22017  0.85016  1.0000
  N   N4        1.0  0.98419  0.22016  0.64984  1.0000
  N   N5        1.0  0.80882  0.52445  0.24816  1.0000
  N   N6        1.0  0.19118  0.52444  0.25184  1.0000
  N   N7        1.0  0.19117  0.47556  0.75184  1.0000
  N   N8        1.0  0.80882  0.47555  0.74816  1.0000
  O   O1        1.0  0.36087  0.09268  0.10728  1.0000
  O   O2        1.0  0.63912  0.09266  0.39271  1.0000
  O   O3        1.0  0.63913  0.90733  0.89272  1.0000
  O   O4        1.0  0.36085  0.90731  0.60727  1.0000
  O   O5        1.0  0.32174  0.81980  0.93881  1.0000
  O   O6        1.0  0.67826  0.81980  0.56119  1.0000
  O   O7        1.0  0.67827  0.18021  0.06119  1.0000
  O   O8        1.0  0.32174  0.18021  0.43881  1.0000
