data_image0
_chemical_formula_structural       Cd2H28C38N20
_chemical_formula_sum              "Cd2 H28 C38 N20"
_cell_length_a       7.79435
_cell_length_b       9.12775
_cell_length_c       15.2387
_cell_angle_alpha    77.2152
_cell_angle_beta     90.1059
_cell_angle_gamma    66.6987

_space_group_name_H-M_alt    "P 1"
_space_group_IT_number       1

loop_
  _space_group_symop_operation_xyz
  'x, y, z'

loop_
  _atom_site_type_symbol
  _atom_site_label
  _atom_site_symmetry_multiplicity
  _atom_site_fract_x
  _atom_site_fract_y
  _atom_site_fract_z
  _atom_site_occupancy
  Cd  Cd1       1.0  0.69652  0.33791  0.29646  1.0000
  Cd  Cd2       1.0  0.30347  0.66209  0.70354  1.0000
  H   H1        1.0  0.13839  0.98772  0.07762  1.0000
  H   H2        1.0  0.86161  0.01228  0.92238  1.0000
  H   H3        1.0  0.07943  0.38393  0.16639  1.0000
  H   H4        1.0  0.92057  0.61608  0.83361  1.0000
  H   H5        1.0  0.94739  0.53897  0.06962  1.0000
  H   H6        1.0  0.05261  0.46104  0.93038  1.0000
  H   H7        1.0  0.01806  0.28071  0.03306  1.0000
  H   H8        1.0  0.98194  0.71929  0.96694  1.0000
  H   H9        1.0  0.77594  0.36374  0.04697  1.0000
  H   H10       1.0  0.22406  0.63626  0.95303  1.0000
  H   H11       1.0  0.80217  0.93370  0.38638  1.0000
  H   H12       1.0  0.19783  0.06629  0.61362  1.0000
  H   H13       1.0  0.94347  0.62793  0.41399  1.0000
  H   H14       1.0  0.05653  0.37207  0.58600  1.0000
  H   H15       1.0  0.14605  0.48961  0.30588  1.0000
  H   H16       1.0  0.85395  0.51039  0.69411  1.0000
  H   H17       1.0  0.21577  0.64826  0.16780  1.0000
  H   H18       1.0  0.78423  0.35174  0.83220  1.0000
  H   H19       1.0  0.75002  0.74747  0.12324  1.0000
  H   H20       1.0  0.24998  0.25253  0.87677  1.0000
  H   H21       1.0  0.53382  0.97659  0.17532  1.0000
  H   H22       1.0  0.46618  0.02341  0.82468  1.0000
  H   H23       1.0  0.32372  0.08672  0.29131  1.0000
  H   H24       1.0  0.67628  0.91328  0.70869  1.0000
  H   H25       1.0  0.26927  0.88417  0.41859  1.0000
  H   H26       1.0  0.73073  0.11583  0.58141  1.0000
  H   H27       1.0  0.42049  0.58549  0.42101  1.0000
  H   H28       1.0  0.57951  0.41451  0.57899  1.0000
  C   C1        1.0  0.94343  0.43936  0.12455  1.0000
  C   C2        1.0  0.05657  0.56064  0.87545  1.0000
  C   C3        1.0  0.91734  0.30986  0.08355  1.0000
  C   C4        1.0  0.08266  0.69014  0.91645  1.0000
  C   C5        1.0  0.94621  0.15183  0.14858  1.0000
  C   C6        1.0  0.05379  0.84817  0.85142  1.0000
  C   C7        1.0  0.04328  0.88193  0.19869  1.0000
  C   C8        1.0  0.95672  0.11807  0.80131  1.0000
  C   C9        1.0  0.92837  0.96311  0.26012  1.0000
  C   C10       1.0  0.07163  0.03689  0.73988  1.0000
  C   C11       1.0  0.89161  0.87289  0.33906  1.0000
  C   C12       1.0  0.10839  0.12711  0.66094  1.0000
  C   C13       1.0  0.97133  0.70218  0.35389  1.0000
  C   C14       1.0  0.02867  0.29781  0.64610  1.0000
  C   C15       1.0  0.08526  0.62323  0.29227  1.0000
  C   C16       1.0  0.91474  0.37677  0.70773  1.0000
  C   C17       1.0  0.12379  0.71133  0.21354  1.0000
  C   C18       1.0  0.87621  0.28867  0.78646  1.0000
  C   C19       1.0  0.71920  0.65852  0.17507  1.0000
  C   C20       1.0  0.28080  0.34148  0.82493  1.0000
  C   C21       1.0  0.58629  0.72594  0.23876  1.0000
  C   C22       1.0  0.41371  0.27407  0.76124  1.0000
  C   C23       1.0  0.50441  0.89518  0.23111  1.0000
  C   C24       1.0  0.49558  0.10482  0.76889  1.0000
  C   C25       1.0  0.38824  0.95508  0.29584  1.0000
  C   C26       1.0  0.61175  0.04492  0.70416  1.0000
  C   C27       1.0  0.35737  0.84418  0.36592  1.0000
  C   C28       1.0  0.64262  0.15582  0.63408  1.0000
  C   C29       1.0  0.44305  0.67646  0.36812  1.0000
  C   C30       1.0  0.55695  0.32354  0.63188  1.0000
  C   C31       1.0  0.44188  0.32229  0.12329  1.0000
  C   C32       1.0  0.55814  0.67770  0.87671  1.0000
  C   C33       1.0  0.56814  0.16374  0.02348  1.0000
  C   C34       1.0  0.43188  0.83625  0.97652  1.0000
  C   C35       1.0  0.11026  0.23135  0.42646  1.0000
  C   C36       1.0  0.88973  0.76865  0.57353  1.0000
  C   C37       1.0  0.40978  0.22438  0.42964  1.0000
  C   C38       1.0  0.59021  0.77563  0.57036  1.0000
  N   N1        1.0  0.79875  0.50356  0.18212  1.0000
  N   N2        1.0  0.20125  0.49644  0.81788  1.0000
  N   N3        1.0  0.86969  0.13187  0.22657  1.0000
  N   N4        1.0  0.13031  0.86813  0.77343  1.0000
  N   N5        1.0  0.05198  0.00501  0.13006  1.0000
  N   N6        1.0  0.94802  0.99499  0.86994  1.0000
  N   N7        1.0  0.55451  0.61873  0.30622  1.0000
  N   N8        1.0  0.44548  0.38127  0.69378  1.0000
  N   N9        1.0  0.43648  0.37011  0.18979  1.0000
  N   N10       1.0  0.56353  0.62988  0.81021  1.0000
  N   N11       1.0  0.43050  0.27930  0.04861  1.0000
  N   N12       1.0  0.56951  0.72069  0.95139  1.0000
  N   N13       1.0  0.68458  0.06030  0.99575  1.0000
  N   N14       1.0  0.31544  0.93969  0.00425  1.0000
  N   N15       1.0  0.95193  0.26886  0.40164  1.0000
  N   N16       1.0  0.04806  0.73114  0.59836  1.0000
  N   N17       1.0  0.28113  0.17906  0.46185  1.0000
  N   N18       1.0  0.71885  0.82095  0.53816  1.0000
  N   N19       1.0  0.53871  0.25616  0.40792  1.0000
  N   N20       1.0  0.46128  0.74385  0.59209  1.0000
