data_image0
_chemical_formula_structural       Mn6P4H16C12O20
_chemical_formula_sum              "Mn6 P4 H16 C12 O20"
_cell_length_a       8.20598
_cell_length_b       9.17297
_cell_length_c       9.35977
_cell_angle_alpha    90
_cell_angle_beta     90
_cell_angle_gamma    104.708

_space_group_name_H-M_alt    "P 1"
_space_group_IT_number       1

loop_
  _space_group_symop_operation_xyz
  'x, y, z'

loop_
  _atom_site_type_symbol
  _atom_site_label
  _atom_site_symmetry_multiplicity
  _atom_site_fract_x
  _atom_site_fract_y
  _atom_site_fract_z
  _atom_site_occupancy
  Mn  Mn1       1.0  0.00000  0.00000  0.00000  1.0000
  Mn  Mn2       1.0  0.00000  0.50000  0.50000  1.0000
  Mn  Mn3       1.0  0.92732  0.88709  0.63410  1.0000
  Mn  Mn4       1.0  0.92732  0.38709  0.86590  1.0000
  Mn  Mn5       1.0  0.07268  0.11291  0.36590  1.0000
  Mn  Mn6       1.0  0.07268  0.61291  0.13410  1.0000
  P   P1        1.0  0.12190  0.73187  0.78636  1.0000
  P   P2        1.0  0.12191  0.23188  0.71364  1.0000
  P   P3        1.0  0.87810  0.26812  0.21364  1.0000
  P   P4        1.0  0.87810  0.76813  0.28636  1.0000
  H   H1        1.0  0.35826  0.64703  0.71045  1.0000
  H   H2        1.0  0.35826  0.14703  0.78955  1.0000
  H   H3        1.0  0.64174  0.35297  0.28955  1.0000
  H   H4        1.0  0.64174  0.85297  0.21045  1.0000
  H   H5        1.0  0.36704  0.83078  0.65074  1.0000
  H   H6        1.0  0.36704  0.33078  0.84926  1.0000
  H   H7        1.0  0.63296  0.16922  0.34926  1.0000
  H   H8        1.0  0.63296  0.66922  0.15075  1.0000
  H   H9        1.0  0.43666  0.74784  0.96195  1.0000
  H   H10       1.0  0.43666  0.24784  0.53805  1.0000
  H   H11       1.0  0.56334  0.25216  0.03805  1.0000
  H   H12       1.0  0.56334  0.75216  0.46195  1.0000
  H   H13       1.0  0.42576  0.92760  0.90791  1.0000
  H   H14       1.0  0.42576  0.42760  0.59209  1.0000
  H   H15       1.0  0.57424  0.07240  0.09209  1.0000
  H   H16       1.0  0.57424  0.57240  0.40791  1.0000
  C   C1        1.0  0.34134  0.75673  0.74486  1.0000
  C   C2        1.0  0.34134  0.25673  0.75514  1.0000
  C   C3        1.0  0.65866  0.24327  0.25514  1.0000
  C   C4        1.0  0.65866  0.74327  0.24486  1.0000
  C   C5        1.0  0.45594  0.82393  0.86905  1.0000
  C   C6        1.0  0.45594  0.32393  0.63095  1.0000
  C   C7        1.0  0.54406  0.17607  0.13095  1.0000
  C   C8        1.0  0.54406  0.67607  0.36905  1.0000
  C   C9        1.0  0.64320  0.86535  0.83557  1.0000
  C   C10       1.0  0.64320  0.36534  0.66443  1.0000
  C   C11       1.0  0.35680  0.13465  0.16443  1.0000
  C   C12       1.0  0.35680  0.63466  0.33557  1.0000
  O   O1        1.0  0.09106  0.88554  0.82764  1.0000
  O   O2        1.0  0.09106  0.38554  0.67236  1.0000
  O   O3        1.0  0.90894  0.11446  0.17236  1.0000
  O   O4        1.0  0.90894  0.61446  0.32764  1.0000
  O   O5        1.0  0.01349  0.68288  0.65030  1.0000
  O   O6        1.0  0.01349  0.18288  0.84970  1.0000
  O   O7        1.0  0.98651  0.31712  0.34970  1.0000
  O   O8        1.0  0.98651  0.81712  0.15030  1.0000
  O   O9        1.0  0.07157  0.61212  0.90724  1.0000
  O   O10       1.0  0.07157  0.11212  0.59276  1.0000
  O   O11       1.0  0.92843  0.38787  0.09276  1.0000
  O   O12       1.0  0.92843  0.88787  0.40724  1.0000
  O   O13       1.0  0.74148  0.90542  0.93997  1.0000
  O   O14       1.0  0.74148  0.40542  0.56003  1.0000
  O   O15       1.0  0.25852  0.09458  0.06003  1.0000
  O   O16       1.0  0.25852  0.59458  0.43997  1.0000
  O   O17       1.0  0.68903  0.85806  0.70470  1.0000
  O   O18       1.0  0.68903  0.35806  0.79529  1.0000
  O   O19       1.0  0.31097  0.14194  0.29529  1.0000
  O   O20       1.0  0.31097  0.64194  0.20471  1.0000
