data_image0
_chemical_formula_structural       Cu4H24C20Br4N8
_chemical_formula_sum              "Cu4 H24 C20 Br4 N8"
_cell_length_a       4.01873
_cell_length_b       12.4482
_cell_length_c       12.8357
_cell_angle_alpha    90.0001
_cell_angle_beta     89.9981
_cell_angle_gamma    98.931

_space_group_name_H-M_alt    "P 1"
_space_group_IT_number       1

loop_
  _space_group_symop_operation_xyz
  'x, y, z'

loop_
  _atom_site_type_symbol
  _atom_site_label
  _atom_site_symmetry_multiplicity
  _atom_site_fract_x
  _atom_site_fract_y
  _atom_site_fract_z
  _atom_site_occupancy
  Cu  Cu1       1.0  0.45767  0.66957  0.30526  1.0000
  Cu  Cu2       1.0  0.45768  0.16958  0.19475  1.0000
  Cu  Cu3       1.0  0.54236  0.33043  0.69474  1.0000
  Cu  Cu4       1.0  0.54233  0.83042  0.80525  1.0000
  H   H1        1.0  0.72693  0.63818  0.68632  1.0000
  H   H2        1.0  0.72696  0.13818  0.81368  1.0000
  H   H3        1.0  0.27306  0.36183  0.31368  1.0000
  H   H4        1.0  0.27305  0.86182  0.18632  1.0000
  H   H5        1.0  0.72918  0.58882  0.49907  1.0000
  H   H6        1.0  0.72920  0.08883  0.00093  1.0000
  H   H7        1.0  0.27083  0.41119  0.50094  1.0000
  H   H8        1.0  0.27078  0.91117  0.99906  1.0000
  H   H9        1.0  0.26287  0.90564  0.61431  1.0000
  H   H10       1.0  0.26290  0.40565  0.88569  1.0000
  H   H11       1.0  0.73711  0.09436  0.38569  1.0000
  H   H12       1.0  0.73710  0.59435  0.11430  1.0000
  H   H13       1.0  0.14316  0.94647  0.43574  1.0000
  H   H14       1.0  0.14317  0.44647  0.06426  1.0000
  H   H15       1.0  0.85682  0.05354  0.56426  1.0000
  H   H16       1.0  0.85682  0.55353  0.93574  1.0000
  H   H17       1.0  0.04851  0.82976  0.35442  1.0000
  H   H18       1.0  0.04849  0.32976  0.14558  1.0000
  H   H19       1.0  0.95150  0.17023  0.64558  1.0000
  H   H20       1.0  0.95151  0.67023  0.85442  1.0000
  H   H21       1.0  0.44983  0.91207  0.34696  1.0000
  H   H22       1.0  0.44981  0.41207  0.15304  1.0000
  H   H23       1.0  0.55018  0.08793  0.65304  1.0000
  H   H24       1.0  0.55019  0.58793  0.84696  1.0000
  C   C1        1.0  0.62290  0.68810  0.62906  1.0000
  C   C2        1.0  0.62292  0.18811  0.87093  1.0000
  C   C3        1.0  0.37711  0.31190  0.37094  1.0000
  C   C4        1.0  0.37708  0.81190  0.12907  1.0000
  C   C5        1.0  0.62557  0.66033  0.52455  1.0000
  C   C6        1.0  0.62559  0.16034  0.97545  1.0000
  C   C7        1.0  0.37444  0.33967  0.47545  1.0000
  C   C8        1.0  0.37441  0.83965  0.02454  1.0000
  C   C9        1.0  0.37649  0.80972  0.48186  1.0000
  C   C10       1.0  0.37650  0.30973  0.01814  1.0000
  C   C11       1.0  0.62352  0.19028  0.51814  1.0000
  C   C12       1.0  0.62350  0.69027  0.98186  1.0000
  C   C13       1.0  0.37129  0.83558  0.58717  1.0000
  C   C14       1.0  0.37130  0.33559  0.91283  1.0000
  C   C15       1.0  0.62872  0.16442  0.41283  1.0000
  C   C16       1.0  0.62870  0.66441  0.08717  1.0000
  C   C17       1.0  0.24711  0.87842  0.40100  1.0000
  C   C18       1.0  0.24712  0.37843  0.09901  1.0000
  C   C19       1.0  0.75288  0.12158  0.59900  1.0000
  C   C20       1.0  0.75288  0.62157  0.90099  1.0000
  Br  Br1       1.0  0.92403  0.53815  0.30393  1.0000
  Br  Br2       1.0  0.92403  0.03815  0.19607  1.0000
  Br  Br3       1.0  0.07597  0.46185  0.69607  1.0000
  Br  Br4       1.0  0.07595  0.96185  0.80394  1.0000
  N   N1        1.0  0.49476  0.77627  0.66216  1.0000
  N   N2        1.0  0.49477  0.27628  0.83784  1.0000
  N   N3        1.0  0.50525  0.22373  0.33784  1.0000
  N   N4        1.0  0.50524  0.72372  0.16215  1.0000
  N   N5        1.0  0.50355  0.71980  0.44979  1.0000
  N   N6        1.0  0.50356  0.21981  0.05021  1.0000
  N   N7        1.0  0.49647  0.28019  0.55021  1.0000
  N   N8        1.0  0.49644  0.78018  0.94979  1.0000
