data_image0
_chemical_formula_structural       Cu8H24C20I8N8
_chemical_formula_sum              "Cu8 H24 C20 I8 N8"
_cell_length_a       4.09054
_cell_length_b       15.1298
_cell_length_c       15.9679
_cell_angle_alpha    113.599
_cell_angle_beta     90.0009
_cell_angle_gamma    89.9994

_space_group_name_H-M_alt    "P 1"
_space_group_IT_number       1

loop_
  _space_group_symop_operation_xyz
  'x, y, z'

loop_
  _atom_site_type_symbol
  _atom_site_label
  _atom_site_symmetry_multiplicity
  _atom_site_fract_x
  _atom_site_fract_y
  _atom_site_fract_z
  _atom_site_occupancy
  Cu  Cu1       1.0  0.91266  0.52157  0.30943  1.0000
  Cu  Cu2       1.0  0.58734  0.52158  0.80943  1.0000
  Cu  Cu3       1.0  0.08734  0.47843  0.69057  1.0000
  Cu  Cu4       1.0  0.41266  0.47842  0.19056  1.0000
  Cu  Cu5       1.0  0.93162  0.93243  0.70415  1.0000
  Cu  Cu6       1.0  0.56837  0.93244  0.20415  1.0000
  Cu  Cu7       1.0  0.06839  0.06757  0.29585  1.0000
  Cu  Cu8       1.0  0.43162  0.06756  0.79585  1.0000
  H   H1        1.0  0.64996  0.72095  0.36607  1.0000
  H   H2        1.0  0.85007  0.72095  0.86607  1.0000
  H   H3        1.0  0.35007  0.27905  0.63393  1.0000
  H   H4        1.0  0.14993  0.27905  0.13393  1.0000
  H   H5        1.0  0.18151  0.58282  0.50046  1.0000
  H   H6        1.0  0.31849  0.58282  0.00046  1.0000
  H   H7        1.0  0.81850  0.41718  0.49954  1.0000
  H   H8        1.0  0.68149  0.41718  0.99954  1.0000
  H   H9        1.0  0.18718  0.73587  0.64225  1.0000
  H   H10       1.0  0.31281  0.73587  0.14225  1.0000
  H   H11       1.0  0.81281  0.26413  0.35775  1.0000
  H   H12       1.0  0.68717  0.26413  0.85775  1.0000
  H   H13       1.0  0.77122  0.95483  0.51886  1.0000
  H   H14       1.0  0.72876  0.95484  0.01887  1.0000
  H   H15       1.0  0.22879  0.04516  0.48114  1.0000
  H   H16       1.0  0.27122  0.04516  0.98113  1.0000
  H   H17       1.0  0.42130  0.92495  0.56615  1.0000
  H   H18       1.0  0.07869  0.92496  0.06616  1.0000
  H   H19       1.0  0.57870  0.07505  0.43385  1.0000
  H   H20       1.0  0.92129  0.07504  0.93384  1.0000
  H   H21       1.0  0.46447  0.88134  0.44414  1.0000
  H   H22       1.0  0.03552  0.88134  0.94415  1.0000
  H   H23       1.0  0.53553  0.11866  0.55586  1.0000
  H   H24       1.0  0.96447  0.11866  0.05585  1.0000
  C   C1        1.0  0.76386  0.80977  0.50741  1.0000
  C   C2        1.0  0.73614  0.80977  0.00741  1.0000
  C   C3        1.0  0.23615  0.19023  0.49259  1.0000
  C   C4        1.0  0.26385  0.19023  0.99259  1.0000
  C   C5        1.0  0.76769  0.72428  0.42858  1.0000
  C   C6        1.0  0.73232  0.72429  0.92858  1.0000
  C   C7        1.0  0.23233  0.27571  0.57142  1.0000
  C   C8        1.0  0.26767  0.27572  0.07142  1.0000
  C   C9        1.0  0.06175  0.64791  0.50216  1.0000
  C   C10       1.0  0.43825  0.64791  0.00216  1.0000
  C   C11       1.0  0.93826  0.35209  0.49784  1.0000
  C   C12       1.0  0.56174  0.35209  0.99783  1.0000
  C   C13       1.0  0.06381  0.73249  0.58051  1.0000
  C   C14       1.0  0.43619  0.73249  0.08051  1.0000
  C   C15       1.0  0.93621  0.26751  0.41949  1.0000
  C   C16       1.0  0.56380  0.26751  0.91949  1.0000
  C   C17       1.0  0.59392  0.89692  0.50861  1.0000
  C   C18       1.0  0.90608  0.89693  0.00861  1.0000
  C   C19       1.0  0.40611  0.10308  0.49139  1.0000
  C   C20       1.0  0.09391  0.10307  0.99139  1.0000
  I   I1        1.0  0.44305  0.89559  0.79477  1.0000
  I   I2        1.0  0.05696  0.89559  0.29477  1.0000
  I   I3        1.0  0.55696  0.10441  0.20523  1.0000
  I   I4        1.0  0.94303  0.10441  0.70523  1.0000
  I   I5        1.0  0.91198  0.58351  0.17738  1.0000
  I   I6        1.0  0.58801  0.58352  0.67738  1.0000
  I   I7        1.0  0.08802  0.41649  0.82262  1.0000
  I   I8        1.0  0.41200  0.41649  0.32262  1.0000
  N   N1        1.0  0.91977  0.81420  0.58420  1.0000
  N   N2        1.0  0.58023  0.81421  0.08420  1.0000
  N   N3        1.0  0.08023  0.18580  0.41580  1.0000
  N   N4        1.0  0.41976  0.18579  0.91580  1.0000
  N   N5        1.0  0.91662  0.64348  0.42480  1.0000
  N   N6        1.0  0.58340  0.64348  0.92481  1.0000
  N   N7        1.0  0.08340  0.35652  0.57520  1.0000
  N   N8        1.0  0.41659  0.35652  0.07519  1.0000
