data_image0
_chemical_formula_structural       Cu4H24C20N8Cl4
_chemical_formula_sum              "Cu4 H24 C20 N8 Cl4"
_cell_length_a       3.85914
_cell_length_b       12.2495
_cell_length_c       12.7937
_cell_angle_alpha    90.0003
_cell_angle_beta     89.9992
_cell_angle_gamma    97.543

_space_group_name_H-M_alt    "P 1"
_space_group_IT_number       1

loop_
  _space_group_symop_operation_xyz
  'x, y, z'

loop_
  _atom_site_type_symbol
  _atom_site_label
  _atom_site_symmetry_multiplicity
  _atom_site_fract_x
  _atom_site_fract_y
  _atom_site_fract_z
  _atom_site_occupancy
  Cu  Cu1       1.0  0.56175  0.83303  0.69770  1.0000
  Cu  Cu2       1.0  0.56175  0.33304  0.80230  1.0000
  Cu  Cu3       1.0  0.43825  0.16696  0.30230  1.0000
  Cu  Cu4       1.0  0.43826  0.66696  0.19770  1.0000
  H   H1        1.0  0.27224  0.91838  0.50559  1.0000
  H   H2        1.0  0.27224  0.41838  0.99441  1.0000
  H   H3        1.0  0.72775  0.08163  0.49441  1.0000
  H   H4        1.0  0.72777  0.58162  0.00559  1.0000
  H   H5        1.0  0.26392  0.86915  0.31701  1.0000
  H   H6        1.0  0.26394  0.36914  0.18299  1.0000
  H   H7        1.0  0.73608  0.13086  0.68299  1.0000
  H   H8        1.0  0.73609  0.63085  0.81701  1.0000
  H   H9        1.0  0.73821  0.59105  0.38585  1.0000
  H   H10       1.0  0.73820  0.09105  0.11414  1.0000
  H   H11       1.0  0.26179  0.40896  0.61415  1.0000
  H   H12       1.0  0.26180  0.90896  0.88585  1.0000
  H   H13       1.0  0.87408  0.54873  0.56519  1.0000
  H   H14       1.0  0.87409  0.04873  0.93481  1.0000
  H   H15       1.0  0.12591  0.45127  0.43481  1.0000
  H   H16       1.0  0.12590  0.95127  0.06519  1.0000
  H   H17       1.0  0.55514  0.58519  0.65435  1.0000
  H   H18       1.0  0.55514  0.08518  0.84565  1.0000
  H   H19       1.0  0.44485  0.41482  0.34565  1.0000
  H   H20       1.0  0.44484  0.91482  0.15435  1.0000
  H   H21       1.0  0.97044  0.66620  0.64754  1.0000
  H   H22       1.0  0.97044  0.16620  0.85246  1.0000
  H   H23       1.0  0.02956  0.33380  0.35246  1.0000
  H   H24       1.0  0.02955  0.83379  0.14754  1.0000
  C   C1        1.0  0.37739  0.84494  0.47872  1.0000
  C   C2        1.0  0.37739  0.34494  0.02128  1.0000
  C   C3        1.0  0.62260  0.15507  0.52128  1.0000
  C   C4        1.0  0.62260  0.65507  0.97872  1.0000
  C   C5        1.0  0.37297  0.81685  0.37371  1.0000
  C   C6        1.0  0.37298  0.31684  0.12630  1.0000
  C   C7        1.0  0.62703  0.18316  0.62630  1.0000
  C   C8        1.0  0.62704  0.68316  0.87370  1.0000
  C   C9        1.0  0.62984  0.66340  0.41411  1.0000
  C   C10       1.0  0.62984  0.16339  0.08589  1.0000
  C   C11       1.0  0.37016  0.33661  0.58589  1.0000
  C   C12       1.0  0.37017  0.83661  0.91411  1.0000
  C   C13       1.0  0.63156  0.68976  0.51978  1.0000
  C   C14       1.0  0.63155  0.18976  0.98022  1.0000
  C   C15       1.0  0.36845  0.31024  0.48022  1.0000
  C   C16       1.0  0.36845  0.81024  0.01978  1.0000
  C   C17       1.0  0.76542  0.61837  0.60042  1.0000
  C   C18       1.0  0.76543  0.11836  0.89957  1.0000
  C   C19       1.0  0.23457  0.38164  0.39958  1.0000
  C   C20       1.0  0.23456  0.88164  0.10042  1.0000
  N   N1        1.0  0.50608  0.78286  0.55282  1.0000
  N   N2        1.0  0.50608  0.28286  0.94719  1.0000
  N   N3        1.0  0.49392  0.21714  0.44718  1.0000
  N   N4        1.0  0.49392  0.71714  0.05282  1.0000
  N   N5        1.0  0.49964  0.72529  0.33979  1.0000
  N   N6        1.0  0.49964  0.22529  0.16021  1.0000
  N   N7        1.0  0.50036  0.27471  0.66021  1.0000
  N   N8        1.0  0.50036  0.77471  0.83978  1.0000
  Cl  Cl1       1.0  0.07728  0.95725  0.70011  1.0000
  Cl  Cl2       1.0  0.07729  0.45725  0.79990  1.0000
  Cl  Cl3       1.0  0.92271  0.04275  0.29989  1.0000
  Cl  Cl4       1.0  0.92270  0.54275  0.20011  1.0000
