data_image0
_chemical_formula_structural       Cu4H40C20I4N8
_chemical_formula_sum              "Cu4 H40 C20 I4 N8"
_cell_length_a       7.23805
_cell_length_b       8.69756
_cell_length_c       12.7052
_cell_angle_alpha    89.9997
_cell_angle_beta     90.0006
_cell_angle_gamma    90.0008

_space_group_name_H-M_alt    "P 1"
_space_group_IT_number       1

loop_
  _space_group_symop_operation_xyz
  'x, y, z'

loop_
  _atom_site_type_symbol
  _atom_site_label
  _atom_site_symmetry_multiplicity
  _atom_site_fract_x
  _atom_site_fract_y
  _atom_site_fract_z
  _atom_site_occupancy
  Cu  Cu1       1.0  0.58023  0.65639  0.39213  1.0000
  Cu  Cu2       1.0  0.91978  0.34360  0.89214  1.0000
  Cu  Cu3       1.0  0.41978  0.15639  0.10785  1.0000
  Cu  Cu4       1.0  0.08023  0.84361  0.60786  1.0000
  H   H1        1.0  0.46159  0.34930  0.47500  1.0000
  H   H2        1.0  0.03841  0.65069  0.97500  1.0000
  H   H3        1.0  0.53840  0.84929  0.02501  1.0000
  H   H4        1.0  0.96160  0.15070  0.52499  1.0000
  H   H5        1.0  0.61437  0.21086  0.41208  1.0000
  H   H6        1.0  0.88563  0.78913  0.91208  1.0000
  H   H7        1.0  0.38562  0.71086  0.08793  1.0000
  H   H8        1.0  0.11437  0.28914  0.58791  1.0000
  H   H9        1.0  0.30392  0.23858  0.32063  1.0000
  H   H10       1.0  0.19608  0.76141  0.82063  1.0000
  H   H11       1.0  0.69608  0.73859  0.17939  1.0000
  H   H12       1.0  0.80392  0.26140  0.67937  1.0000
  H   H13       1.0  0.35264  0.44115  0.30467  1.0000
  H   H14       1.0  0.14736  0.55884  0.80467  1.0000
  H   H15       1.0  0.64735  0.94115  0.19533  1.0000
  H   H16       1.0  0.85265  0.05885  0.69532  1.0000
  H   H17       1.0  0.60793  0.51421  0.19189  1.0000
  H   H18       1.0  0.89206  0.48579  0.69190  1.0000
  H   H19       1.0  0.39207  0.01422  0.30810  1.0000
  H   H20       1.0  0.10794  0.98580  0.80810  1.0000
  H   H21       1.0  0.74642  0.36331  0.13076  1.0000
  H   H22       1.0  0.75358  0.63670  0.63076  1.0000
  H   H23       1.0  0.25360  0.86333  0.36925  1.0000
  H   H24       1.0  0.24642  0.13670  0.86924  1.0000
  H   H25       1.0  0.85297  0.29067  0.31247  1.0000
  H   H26       1.0  0.64702  0.70933  0.81249  1.0000
  H   H27       1.0  0.14702  0.79067  0.18754  1.0000
  H   H28       1.0  0.35298  0.20933  0.68751  1.0000
  H   H29       1.0  0.88909  0.64200  0.28041  1.0000
  H   H30       1.0  0.61091  0.35801  0.78041  1.0000
  H   H31       1.0  0.11091  0.14199  0.21958  1.0000
  H   H32       1.0  0.38909  0.85800  0.71959  1.0000
  H   H33       1.0  0.01720  0.49942  0.20870  1.0000
  H   H34       1.0  0.48280  0.50059  0.70870  1.0000
  H   H35       1.0  0.98279  0.99943  0.29130  1.0000
  H   H36       1.0  0.51721  0.00059  0.79129  1.0000
  H   H37       1.0  0.04922  0.52454  0.34720  1.0000
  H   H38       1.0  0.45078  0.47546  0.84720  1.0000
  H   H39       1.0  0.95079  0.02452  0.15280  1.0000
  H   H40       1.0  0.54922  0.97546  0.65279  1.0000
  C   C1        1.0  0.55099  0.32580  0.40709  1.0000
  C   C2        1.0  0.94900  0.67418  0.90710  1.0000
  C   C3        1.0  0.44900  0.82580  0.09291  1.0000
  C   C4        1.0  0.05100  0.17420  0.59289  1.0000
  C   C5        1.0  0.41156  0.32418  0.30491  1.0000
  C   C6        1.0  0.08844  0.67581  0.80493  1.0000
  C   C7        1.0  0.58844  0.82419  0.19509  1.0000
  C   C8        1.0  0.91156  0.17582  0.69507  1.0000
  C   C9        1.0  0.65777  0.39488  0.19734  1.0000
  C   C10       1.0  0.84223  0.60513  0.69735  1.0000
  C   C11       1.0  0.34222  0.89489  0.30266  1.0000
  C   C12       1.0  0.15777  0.10513  0.80265  1.0000
  C   C13       1.0  0.79767  0.40836  0.30603  1.0000
  C   C14       1.0  0.70234  0.59165  0.80603  1.0000
  C   C15       1.0  0.20234  0.90835  0.19398  1.0000
  C   C16       1.0  0.29768  0.09165  0.69397  1.0000
  C   C17       1.0  0.94683  0.52528  0.28323  1.0000
  C   C18       1.0  0.55317  0.47472  0.78324  1.0000
  C   C19       1.0  0.05317  0.02528  0.21677  1.0000
  C   C20       1.0  0.44683  0.97473  0.71676  1.0000
  I   I1        1.0  0.28310  0.62067  0.52912  1.0000
  I   I2        1.0  0.21689  0.37933  0.02911  1.0000
  I   I3        1.0  0.71691  0.12065  0.97089  1.0000
  I   I4        1.0  0.78309  0.87933  0.47089  1.0000
  N   N1        1.0  0.67397  0.44644  0.38622  1.0000
  N   N2        1.0  0.82603  0.55355  0.88622  1.0000
  N   N3        1.0  0.32602  0.94643  0.11379  1.0000
  N   N4        1.0  0.17396  0.05355  0.61377  1.0000
  N   N5        1.0  0.52115  0.28682  0.21738  1.0000
  N   N6        1.0  0.97886  0.71318  0.71739  1.0000
  N   N7        1.0  0.47886  0.78683  0.28263  1.0000
  N   N8        1.0  0.02114  0.21318  0.78261  1.0000
