data_image0
_chemical_formula_structural       Cd3H30C18N14Cl6
_chemical_formula_sum              "Cd3 H30 C18 N14 Cl6"
_cell_length_a       7.95592
_cell_length_b       9.5162
_cell_length_c       10.0742
_cell_angle_alpha    90.5944
_cell_angle_beta     98.0302
_cell_angle_gamma    101.194

_space_group_name_H-M_alt    "P 1"
_space_group_IT_number       1

loop_
  _space_group_symop_operation_xyz
  'x, y, z'

loop_
  _atom_site_type_symbol
  _atom_site_label
  _atom_site_symmetry_multiplicity
  _atom_site_fract_x
  _atom_site_fract_y
  _atom_site_fract_z
  _atom_site_occupancy
  Cd  Cd1       1.0  0.50000  0.50000  0.50000  1.0000
  Cd  Cd2       1.0  0.48289  0.72282  0.17018  1.0000
  Cd  Cd3       1.0  0.51711  0.27718  0.82983  1.0000
  H   H1        1.0  0.84650  0.89271  0.31467  1.0000
  H   H2        1.0  0.15351  0.10729  0.68533  1.0000
  H   H3        1.0  0.02086  0.36965  0.39279  1.0000
  H   H4        1.0  0.97914  0.63035  0.60721  1.0000
  H   H5        1.0  0.83636  0.44074  0.39647  1.0000
  H   H6        1.0  0.16364  0.55926  0.60353  1.0000
  H   H7        1.0  0.21068  0.20555  0.37817  1.0000
  H   H8        1.0  0.78932  0.79445  0.62183  1.0000
  H   H9        1.0  0.11384  0.93673  0.37269  1.0000
  H   H10       1.0  0.88616  0.06327  0.62731  1.0000
  H   H11       1.0  0.26712  0.82710  0.35658  1.0000
  H   H12       1.0  0.73288  0.17290  0.64342  1.0000
  H   H13       1.0  0.04083  0.78424  0.16465  1.0000
  H   H14       1.0  0.95917  0.21576  0.83535  1.0000
  H   H15       1.0  0.07078  0.96812  0.12745  1.0000
  H   H16       1.0  0.92922  0.03188  0.87255  1.0000
  H   H17       1.0  0.33672  0.96564  0.06907  1.0000
  H   H18       1.0  0.66328  0.03436  0.93093  1.0000
  H   H19       1.0  0.29405  0.82590  0.88603  1.0000
  H   H20       1.0  0.70595  0.17410  0.11397  1.0000
  H   H21       1.0  0.07973  0.83546  0.91178  1.0000
  H   H22       1.0  0.92027  0.16454  0.08822  1.0000
  H   H23       1.0  0.07245  0.60581  0.04056  1.0000
  H   H24       1.0  0.92754  0.39419  0.95944  1.0000
  H   H25       1.0  0.07429  0.58732  0.86535  1.0000
  H   H26       1.0  0.92571  0.41268  0.13465  1.0000
  H   H27       1.0  0.37518  0.57824  0.91292  1.0000
  H   H28       1.0  0.62482  0.42176  0.08708  1.0000
  H   H29       1.0  0.28041  0.46718  0.01670  1.0000
  H   H30       1.0  0.71959  0.53282  0.98330  1.0000
  C   C1        1.0  0.77845  0.97925  0.32978  1.0000
  C   C2        1.0  0.22155  0.02075  0.67022  1.0000
  C   C3        1.0  0.52720  0.04910  0.33749  1.0000
  C   C4        1.0  0.47281  0.95090  0.66250  1.0000
  C   C5        1.0  0.61125  0.19098  0.37325  1.0000
  C   C6        1.0  0.38875  0.80902  0.62675  1.0000
  C   C7        1.0  0.79471  0.22151  0.37937  1.0000
  C   C8        1.0  0.20529  0.77849  0.62063  1.0000
  C   C9        1.0  0.33682  0.18115  0.37017  1.0000
  C   C10       1.0  0.66318  0.81885  0.62983  1.0000
  C   C11       1.0  0.21439  0.91813  0.31448  1.0000
  C   C12       1.0  0.78562  0.08187  0.68552  1.0000
  C   C13       1.0  0.13834  0.88375  0.16833  1.0000
  C   C14       1.0  0.86166  0.11625  0.83167  1.0000
  C   C15       1.0  0.19664  0.79578  0.95324  1.0000
  C   C16       1.0  0.80336  0.20422  0.04676  1.0000
  C   C17       1.0  0.15195  0.63335  0.96044  1.0000
  C   C18       1.0  0.84805  0.36665  0.03956  1.0000
  N   N1        1.0  0.87430  0.10944  0.36175  1.0000
  N   N2        1.0  0.12570  0.89056  0.63825  1.0000
  N   N3        1.0  0.60472  0.93980  0.31256  1.0000
  N   N4        1.0  0.39528  0.06020  0.68744  1.0000
  N   N5        1.0  0.89245  0.35256  0.40079  1.0000
  N   N6        1.0  0.10755  0.64744  0.59921  1.0000
  N   N7        1.0  0.48808  0.27156  0.39358  1.0000
  N   N8        1.0  0.51192  0.72844  0.60642  1.0000
  N   N9        1.0  0.35299  0.04524  0.33622  1.0000
  N   N10       1.0  0.64701  0.95476  0.66378  1.0000
  N   N11       1.0  0.27180  0.86427  0.08602  1.0000
  N   N12       1.0  0.72820  0.13573  0.91398  1.0000
  N   N13       1.0  0.30935  0.57323  0.99364  1.0000
  N   N14       1.0  0.69065  0.42677  0.00636  1.0000
  Cl  Cl1       1.0  0.71629  0.61767  0.33051  1.0000
  Cl  Cl2       1.0  0.28371  0.38233  0.66949  1.0000
  Cl  Cl3       1.0  0.25356  0.54895  0.31573  1.0000
  Cl  Cl4       1.0  0.74643  0.45105  0.68427  1.0000
  Cl  Cl5       1.0  0.68943  0.79732  0.99323  1.0000
  Cl  Cl6       1.0  0.31057  0.20267  0.00677  1.0000
