data_image0
_chemical_formula_structural       Mn2V8H36C8N8O24
_chemical_formula_sum              "Mn2 V8 H36 C8 N8 O24"
_cell_length_a       5.78711
_cell_length_b       8.32551
_cell_length_c       17.5031
_cell_angle_alpha    90.0004
_cell_angle_beta     90
_cell_angle_gamma    100.689

_space_group_name_H-M_alt    "P 1"
_space_group_IT_number       1

loop_
  _space_group_symop_operation_xyz
  'x, y, z'

loop_
  _atom_site_type_symbol
  _atom_site_label
  _atom_site_symmetry_multiplicity
  _atom_site_fract_x
  _atom_site_fract_y
  _atom_site_fract_z
  _atom_site_occupancy
  Mn  Mn1       1.0  0.00000  0.00000  1.00000  1.0000
  Mn  Mn2       1.0  0.50000  0.50000  0.50000  1.0000
  V   V1        1.0  0.78003  0.86386  0.17676  1.0000
  V   V2        1.0  0.71997  0.63615  0.67675  1.0000
  V   V3        1.0  0.21997  0.13614  0.82324  1.0000
  V   V4        1.0  0.28002  0.36386  0.32325  1.0000
  V   V5        1.0  0.78207  0.29238  0.88738  1.0000
  V   V6        1.0  0.71792  0.20762  0.38738  1.0000
  V   V7        1.0  0.21793  0.70762  0.11262  1.0000
  V   V8        1.0  0.28207  0.79238  0.61262  1.0000
  H   H1        1.0  0.62434  0.75922  0.01672  1.0000
  H   H2        1.0  0.87567  0.74078  0.51672  1.0000
  H   H3        1.0  0.37567  0.24078  0.98328  1.0000
  H   H4        1.0  0.12433  0.25922  0.48328  1.0000
  H   H5        1.0  0.81086  0.67877  0.96427  1.0000
  H   H6        1.0  0.68914  0.82124  0.46427  1.0000
  H   H7        1.0  0.18914  0.32124  0.03573  1.0000
  H   H8        1.0  0.31086  0.17876  0.53573  1.0000
  H   H9        1.0  0.70968  0.81081  0.85199  1.0000
  H   H10       1.0  0.79032  0.68919  0.35199  1.0000
  H   H11       1.0  0.29032  0.18920  0.14801  1.0000
  H   H12       1.0  0.20968  0.31081  0.64801  1.0000
  H   H13       1.0  0.52293  0.91057  0.90790  1.0000
  H   H14       1.0  0.97706  0.58943  0.40790  1.0000
  H   H15       1.0  0.47706  0.08943  0.09210  1.0000
  H   H16       1.0  0.02294  0.41056  0.59210  1.0000
  H   H17       1.0  0.28509  0.62972  0.94316  1.0000
  H   H18       1.0  0.21491  0.87028  0.44316  1.0000
  H   H19       1.0  0.71491  0.37027  0.05684  1.0000
  H   H20       1.0  0.78509  0.12972  0.55684  1.0000
  H   H21       1.0  0.44983  0.54293  0.87291  1.0000
  H   H22       1.0  0.05017  0.95707  0.37292  1.0000
  H   H23       1.0  0.55017  0.45707  0.12708  1.0000
  H   H24       1.0  0.94983  0.04293  0.62708  1.0000
  H   H25       1.0  0.17519  0.80669  0.84757  1.0000
  H   H26       1.0  0.32481  0.69331  0.34757  1.0000
  H   H27       1.0  0.82482  0.19331  0.15243  1.0000
  H   H28       1.0  0.67519  0.30669  0.65243  1.0000
  H   H29       1.0  0.07626  0.60914  0.82529  1.0000
  H   H30       1.0  0.42374  0.89086  0.32530  1.0000
  H   H31       1.0  0.92374  0.39086  0.17471  1.0000
  H   H32       1.0  0.57626  0.10914  0.67471  1.0000
  H   H33       1.0  0.31111  0.71597  0.77800  1.0000
  H   H34       1.0  0.18889  0.78403  0.27800  1.0000
  H   H35       1.0  0.68890  0.28404  0.22200  1.0000
  H   H36       1.0  0.81111  0.21597  0.72200  1.0000
  C   C1        1.0  0.59238  0.79736  0.90186  1.0000
  C   C2        1.0  0.90762  0.70264  0.40186  1.0000
  C   C3        1.0  0.40762  0.20265  0.09814  1.0000
  C   C4        1.0  0.09238  0.29735  0.59814  1.0000
  C   C5        1.0  0.38895  0.65414  0.89068  1.0000
  C   C6        1.0  0.11106  0.84586  0.39068  1.0000
  C   C7        1.0  0.61106  0.34586  0.10932  1.0000
  C   C8        1.0  0.88894  0.15414  0.60932  1.0000
  N   N1        1.0  0.73339  0.78024  0.97019  1.0000
  N   N2        1.0  0.76661  0.71976  0.47020  1.0000
  N   N3        1.0  0.26661  0.21976  0.02980  1.0000
  N   N4        1.0  0.23339  0.28024  0.52980  1.0000
  N   N5        1.0  0.22723  0.69726  0.83080  1.0000
  N   N6        1.0  0.27276  0.80274  0.33081  1.0000
  N   N7        1.0  0.77277  0.30274  0.16920  1.0000
  N   N8        1.0  0.72724  0.19726  0.66920  1.0000
  O   O1        1.0  0.86055  0.01305  0.11055  1.0000
  O   O2        1.0  0.63945  0.48695  0.61054  1.0000
  O   O3        1.0  0.13945  0.98695  0.88945  1.0000
  O   O4        1.0  0.36055  0.51305  0.38945  1.0000
  O   O5        1.0  0.79380  0.15777  0.95861  1.0000
  O   O6        1.0  0.70620  0.34222  0.45861  1.0000
  O   O7        1.0  0.20620  0.84223  0.04139  1.0000
  O   O8        1.0  0.29379  0.65777  0.54139  1.0000
  O   O9        1.0  0.72283  0.94853  0.25723  1.0000
  O   O10       1.0  0.77717  0.55148  0.75722  1.0000
  O   O11       1.0  0.27717  0.05148  0.74277  1.0000
  O   O12       1.0  0.22284  0.44852  0.24277  1.0000
  O   O13       1.0  0.02422  0.75653  0.18865  1.0000
  O   O14       1.0  0.47579  0.74347  0.68864  1.0000
  O   O15       1.0  0.97578  0.24347  0.81135  1.0000
  O   O16       1.0  0.52420  0.25652  0.31136  1.0000
  O   O17       1.0  0.52180  0.72912  0.14296  1.0000
  O   O18       1.0  0.97821  0.77089  0.64296  1.0000
  O   O19       1.0  0.47821  0.27088  0.85704  1.0000
  O   O20       1.0  0.02178  0.22912  0.35704  1.0000
  O   O21       1.0  0.87452  0.47706  0.92084  1.0000
  O   O22       1.0  0.62547  0.02295  0.42084  1.0000
  O   O23       1.0  0.12548  0.52295  0.07916  1.0000
  O   O24       1.0  0.37453  0.97705  0.57916  1.0000
