data_image0
_chemical_formula_structural       Zn2H20C32N4O10
_chemical_formula_sum              "Zn2 H20 C32 N4 O10"
_cell_length_a       7.92388
_cell_length_b       7.98959
_cell_length_c       13.1968
_cell_angle_alpha    107.815
_cell_angle_beta     101.386
_cell_angle_gamma    98.9161

_space_group_name_H-M_alt    "P 1"
_space_group_IT_number       1

loop_
  _space_group_symop_operation_xyz
  'x, y, z'

loop_
  _atom_site_type_symbol
  _atom_site_label
  _atom_site_symmetry_multiplicity
  _atom_site_fract_x
  _atom_site_fract_y
  _atom_site_fract_z
  _atom_site_occupancy
  Zn  Zn1       1.0  0.23990  0.63452  0.17368  1.0000
  Zn  Zn2       1.0  0.76010  0.36548  0.82632  1.0000
  H   H1        1.0  0.04497  0.83099  0.34528  1.0000
  H   H2        1.0  0.95502  0.16900  0.65472  1.0000
  H   H3        1.0  0.10806  0.94885  0.55268  1.0000
  H   H4        1.0  0.89193  0.05114  0.44732  1.0000
  H   H5        1.0  0.38884  0.91391  0.66523  1.0000
  H   H6        1.0  0.61116  0.08609  0.33478  1.0000
  H   H7        1.0  0.66424  0.79396  0.66790  1.0000
  H   H8        1.0  0.33576  0.20604  0.33210  1.0000
  H   H9        1.0  0.85145  0.63021  0.56660  1.0000
  H   H10       1.0  0.14854  0.36978  0.43340  1.0000
  H   H11       1.0  0.90843  0.46330  0.37945  1.0000
  H   H12       1.0  0.09157  0.53670  0.62055  1.0000
  H   H13       1.0  0.80743  0.35918  0.17436  1.0000
  H   H14       1.0  0.19258  0.64083  0.82564  1.0000
  H   H15       1.0  0.53490  0.43252  0.08538  1.0000
  H   H16       1.0  0.46511  0.56749  0.91462  1.0000
  H   H17       1.0  0.94837  0.68965  0.06688  1.0000
  H   H18       1.0  0.05163  0.31035  0.93312  1.0000
  H   H19       1.0  0.05531  0.87037  0.15949  1.0000
  H   H20       1.0  0.94468  0.12963  0.84051  1.0000
  C   C1        1.0  0.46648  0.96605  0.02882  1.0000
  C   C2        1.0  0.53353  0.03396  0.97119  1.0000
  C   C3        1.0  0.38767  0.88353  0.09736  1.0000
  C   C4        1.0  0.61234  0.11647  0.90264  1.0000
  C   C5        1.0  0.16411  0.81877  0.39754  1.0000
  C   C6        1.0  0.83588  0.18122  0.60246  1.0000
  C   C7        1.0  0.20054  0.88352  0.51313  1.0000
  C   C8        1.0  0.79945  0.11648  0.48687  1.0000
  C   C9        1.0  0.35368  0.86381  0.57528  1.0000
  C   C10       1.0  0.64632  0.13619  0.42472  1.0000
  C   C11       1.0  0.46970  0.77662  0.52092  1.0000
  C   C12       1.0  0.53030  0.22338  0.47908  1.0000
  C   C13       1.0  0.62867  0.74557  0.57813  1.0000
  C   C14       1.0  0.37133  0.25444  0.42187  1.0000
  C   C15       1.0  0.73304  0.65511  0.52110  1.0000
  C   C16       1.0  0.26696  0.34489  0.47890  1.0000
  C   C17       1.0  0.68873  0.59031  0.40310  1.0000
  C   C18       1.0  0.31127  0.40970  0.59690  1.0000
  C   C19       1.0  0.78848  0.49265  0.33904  1.0000
  C   C20       1.0  0.21152  0.50735  0.66097  1.0000
  C   C21       1.0  0.73353  0.43481  0.22541  1.0000
  C   C22       1.0  0.26646  0.56520  0.77459  1.0000
  C   C23       1.0  0.57927  0.47545  0.17492  1.0000
  C   C24       1.0  0.42073  0.52457  0.82508  1.0000
  C   C25       1.0  0.53374  0.62216  0.34465  1.0000
  C   C26       1.0  0.46626  0.37784  0.65535  1.0000
  C   C27       1.0  0.42197  0.71479  0.40411  1.0000
  C   C28       1.0  0.57803  0.28521  0.59589  1.0000
  C   C29       1.0  0.08463  0.25704  0.11595  1.0000
  C   C30       1.0  0.91538  0.74295  0.88404  1.0000
  C   C31       1.0  0.02515  0.07489  0.03521  1.0000
  C   C32       1.0  0.97487  0.92511  0.96479  1.0000
  N   N1        1.0  0.48280  0.56643  0.23325  1.0000
  N   N2        1.0  0.51720  0.43357  0.76675  1.0000
  N   N3        1.0  0.27194  0.73702  0.34466  1.0000
  N   N4        1.0  0.72805  0.26297  0.65534  1.0000
  O   O1        1.0  0.32773  0.71081  0.05544  1.0000
  O   O2        1.0  0.67227  0.28919  0.94456  1.0000
  O   O3        1.0  0.38179  0.98093  0.19103  1.0000
  O   O4        1.0  0.61820  0.01906  0.80897  1.0000
  O   O5        1.0  0.11721  0.38073  0.07255  1.0000
  O   O6        1.0  0.88280  0.61927  0.92745  1.0000
  O   O7        1.0  0.09863  0.28287  0.21541  1.0000
  O   O8        1.0  0.90138  0.71712  0.78458  1.0000
  O   O9        1.0  0.00730  0.74364  0.14817  1.0000
  O   O10       1.0  0.99270  0.25636  0.85182  1.0000
