data_image0
_chemical_formula_structural       Cd2H24C28N6O12
_chemical_formula_sum              "Cd2 H24 C28 N6 O12"
_cell_length_a       7.73438
_cell_length_b       9.36293
_cell_length_c       11.2607
_cell_angle_alpha    102.282
_cell_angle_beta     106.074
_cell_angle_gamma    106.334

_space_group_name_H-M_alt    "P 1"
_space_group_IT_number       1

loop_
  _space_group_symop_operation_xyz
  'x, y, z'

loop_
  _atom_site_type_symbol
  _atom_site_label
  _atom_site_symmetry_multiplicity
  _atom_site_fract_x
  _atom_site_fract_y
  _atom_site_fract_z
  _atom_site_occupancy
  Cd  Cd1       1.0  0.05469  0.84471  0.07850  1.0000
  Cd  Cd2       1.0  0.94531  0.15529  0.92150  1.0000
  H   H1        1.0  0.82954  0.53919  0.48343  1.0000
  H   H2        1.0  0.17046  0.46082  0.51658  1.0000
  H   H3        1.0  0.35898  0.20975  0.25052  1.0000
  H   H4        1.0  0.64101  0.79025  0.74948  1.0000
  H   H5        1.0  0.73320  0.52344  0.08290  1.0000
  H   H6        1.0  0.26680  0.47655  0.91710  1.0000
  H   H7        1.0  0.55537  0.37323  0.48406  1.0000
  H   H8        1.0  0.44463  0.62677  0.51594  1.0000
  H   H9        1.0  0.07261  0.77891  0.65735  1.0000
  H   H10       1.0  0.92739  0.22109  0.34265  1.0000
  H   H11       1.0  0.31982  0.04543  0.72132  1.0000
  H   H12       1.0  0.68018  0.95457  0.27868  1.0000
  H   H13       1.0  0.50930  0.26009  0.66007  1.0000
  H   H14       1.0  0.49070  0.73992  0.33993  1.0000
  H   H15       1.0  0.64700  0.39612  0.24261  1.0000
  H   H16       1.0  0.35300  0.60388  0.75739  1.0000
  H   H17       1.0  0.34907  0.84431  0.90031  1.0000
  H   H18       1.0  0.65093  0.15568  0.09970  1.0000
  H   H19       1.0  0.52445  0.98479  0.86740  1.0000
  H   H20       1.0  0.47555  0.01521  0.13260  1.0000
  H   H21       1.0  0.24274  0.62608  0.11590  1.0000
  H   H22       1.0  0.75726  0.37392  0.88410  1.0000
  H   H23       1.0  0.40475  0.74384  0.08410  1.0000
  H   H24       1.0  0.59525  0.25616  0.91591  1.0000
  C   C1        1.0  0.86193  0.58834  0.40908  1.0000
  C   C2        1.0  0.13807  0.41166  0.59092  1.0000
  C   C3        1.0  0.34535  0.16399  0.33006  1.0000
  C   C4        1.0  0.65465  0.83601  0.66994  1.0000
  C   C5        1.0  0.81127  0.58044  0.18706  1.0000
  C   C6        1.0  0.18873  0.41955  0.81294  1.0000
  C   C7        1.0  0.45309  0.25535  0.46045  1.0000
  C   C8        1.0  0.54691  0.74465  0.53955  1.0000
  C   C9        1.0  0.00830  0.73758  0.44956  1.0000
  C   C10       1.0  0.99170  0.26242  0.55043  1.0000
  C   C11       1.0  0.04812  0.79952  0.35105  1.0000
  C   C12       1.0  0.95188  0.20047  0.64895  1.0000
  C   C13       1.0  0.19045  0.95532  0.38891  1.0000
  C   C14       1.0  0.80955  0.04468  0.61109  1.0000
  C   C15       1.0  0.11000  0.82763  0.58404  1.0000
  C   C16       1.0  0.89000  0.17237  0.41596  1.0000
  C   C17       1.0  0.24571  0.97397  0.61940  1.0000
  C   C18       1.0  0.75429  0.02603  0.38060  1.0000
  C   C19       1.0  0.28957  0.04105  0.52360  1.0000
  C   C20       1.0  0.71044  0.95895  0.47640  1.0000
  C   C21       1.0  0.42644  0.19338  0.55772  1.0000
  C   C22       1.0  0.57356  0.80662  0.44228  1.0000
  C   C23       1.0  0.76233  0.51036  0.27770  1.0000
  C   C24       1.0  0.23767  0.48964  0.72230  1.0000
  C   C25       1.0  0.64138  0.86382  0.99275  1.0000
  C   C26       1.0  0.35862  0.13618  0.00725  1.0000
  C   C27       1.0  0.49442  0.93505  0.94248  1.0000
  C   C28       1.0  0.50558  0.06495  0.05752  1.0000
  N   N1        1.0  0.22068  0.01817  0.29510  1.0000
  N   N2        1.0  0.77932  0.98183  0.70490  1.0000
  N   N3        1.0  0.95109  0.71941  0.22275  1.0000
  N   N4        1.0  0.04891  0.28059  0.77725  1.0000
  N   N5        1.0  0.88925  0.61300  0.81164  1.0000
  N   N6        1.0  0.11075  0.38700  0.18836  1.0000
  O   O1        1.0  0.29701  0.73709  0.11918  1.0000
  O   O2        1.0  0.70299  0.26291  0.88082  1.0000
  O   O3        1.0  0.01526  0.74831  0.83938  1.0000
  O   O4        1.0  0.98474  0.25169  0.16062  1.0000
  O   O5        1.0  0.84947  0.57296  0.90642  1.0000
  O   O6        1.0  0.15053  0.42704  0.09358  1.0000
  O   O7        1.0  0.80586  0.52238  0.69760  1.0000
  O   O8        1.0  0.19414  0.47762  0.30240  1.0000
  O   O9        1.0  0.80661  0.91799  0.98074  1.0000
  O   O10       1.0  0.19339  0.08201  0.01927  1.0000
  O   O11       1.0  0.59954  0.76123  0.04677  1.0000
  O   O12       1.0  0.40046  0.23877  0.95323  1.0000
