data_image0
_chemical_formula_structural       Ni2H20C24N8O8
_chemical_formula_sum              "Ni2 H20 C24 N8 O8"
_cell_length_a       7.35067
_cell_length_b       7.84718
_cell_length_c       10.972
_cell_angle_alpha    89.9992
_cell_angle_beta     106.325
_cell_angle_gamma    90.0005

_space_group_name_H-M_alt    "P 1"
_space_group_IT_number       1

loop_
  _space_group_symop_operation_xyz
  'x, y, z'

loop_
  _atom_site_type_symbol
  _atom_site_label
  _atom_site_symmetry_multiplicity
  _atom_site_fract_x
  _atom_site_fract_y
  _atom_site_fract_z
  _atom_site_occupancy
  Ni  Ni1       1.0  0.50000  0.50000  0.50000  1.0000
  Ni  Ni2       1.0  1.00000  1.00000  0.50000  1.0000
  H   H1        1.0  0.28841  0.27040  0.84489  1.0000
  H   H2        1.0  0.21155  0.77038  0.15510  1.0000
  H   H3        1.0  0.71160  0.72961  0.15512  1.0000
  H   H4        1.0  0.78844  0.22961  0.84490  1.0000
  H   H5        1.0  0.43986  0.79864  0.66075  1.0000
  H   H6        1.0  0.06015  0.29864  0.33923  1.0000
  H   H7        1.0  0.56015  0.20136  0.33925  1.0000
  H   H8        1.0  0.93985  0.70136  0.66077  1.0000
  H   H9        1.0  0.27491  0.83579  0.95479  1.0000
  H   H10       1.0  0.22508  0.33580  0.04520  1.0000
  H   H11       1.0  0.72509  0.16422  0.04521  1.0000
  H   H12       1.0  0.77491  0.66420  0.95480  1.0000
  H   H13       1.0  0.32913  0.95033  0.82684  1.0000
  H   H14       1.0  0.17088  0.45031  0.17317  1.0000
  H   H15       1.0  0.67087  0.04968  0.17317  1.0000
  H   H16       1.0  0.82911  0.54968  0.82684  1.0000
  H   H17       1.0  0.51302  0.86650  0.95114  1.0000
  H   H18       1.0  0.98699  0.36650  0.04887  1.0000
  H   H19       1.0  0.48698  0.13351  0.04887  1.0000
  H   H20       1.0  0.01301  0.63349  0.95113  1.0000
  C   C1        1.0  0.40162  0.23239  0.62116  1.0000
  C   C2        1.0  0.09838  0.73238  0.37883  1.0000
  C   C3        1.0  0.59838  0.76760  0.37884  1.0000
  C   C4        1.0  0.90163  0.26758  0.62116  1.0000
  C   C5        1.0  0.38330  0.38624  0.69653  1.0000
  C   C6        1.0  0.11671  0.88623  0.30346  1.0000
  C   C7        1.0  0.61670  0.61377  0.30346  1.0000
  C   C8        1.0  0.88330  0.11376  0.69654  1.0000
  C   C9        1.0  0.32754  0.38948  0.80723  1.0000
  C   C10       1.0  0.17246  0.88947  0.19277  1.0000
  C   C11       1.0  0.67246  0.61053  0.19277  1.0000
  C   C12       1.0  0.82754  0.11052  0.80724  1.0000
  C   C13       1.0  0.41226  0.68085  0.70520  1.0000
  C   C14       1.0  0.08774  0.18083  0.29479  1.0000
  C   C15       1.0  0.58774  0.31916  0.29480  1.0000
  C   C16       1.0  0.91225  0.81916  0.70521  1.0000
  C   C17       1.0  0.36365  0.67981  0.82066  1.0000
  C   C18       1.0  0.13634  0.17979  0.17933  1.0000
  C   C19       1.0  0.63635  0.32020  0.17934  1.0000
  C   C20       1.0  0.86366  0.82021  0.82067  1.0000
  C   C21       1.0  0.36726  0.84195  0.89219  1.0000
  C   C22       1.0  0.13273  0.34193  0.10781  1.0000
  C   C23       1.0  0.63274  0.15806  0.10781  1.0000
  C   C24       1.0  0.86726  0.65807  0.89219  1.0000
  N   N1        1.0  0.42542  0.53395  0.64646  1.0000
  N   N2        1.0  0.07459  0.03394  0.35353  1.0000
  N   N3        1.0  0.57457  0.46606  0.35353  1.0000
  N   N4        1.0  0.92541  0.96605  0.64647  1.0000
  N   N5        1.0  0.31939  0.53404  0.87049  1.0000
  N   N6        1.0  0.18060  0.03402  0.12950  1.0000
  N   N7        1.0  0.68061  0.46597  0.12951  1.0000
  N   N8        1.0  0.81940  0.96597  0.87050  1.0000
  O   O1        1.0  0.45528  0.26942  0.51991  1.0000
  O   O2        1.0  0.04472  0.76941  0.48009  1.0000
  O   O3        1.0  0.54472  0.73058  0.48009  1.0000
  O   O4        1.0  0.95528  0.23057  0.51991  1.0000
  O   O5        1.0  0.36902  0.08638  0.65261  1.0000
  O   O6        1.0  0.13097  0.58638  0.34739  1.0000
  O   O7        1.0  0.63099  0.91363  0.34738  1.0000
  O   O8        1.0  0.86903  0.41362  0.65261  1.0000
