data_image0
_chemical_formula_structural       Gd4P4H24C8O32
_chemical_formula_sum              "Gd4 P4 H24 C8 O32"
_cell_length_a       7.55322
_cell_length_b       8.5274
_cell_length_c       12.2391
_cell_angle_alpha    93.7243
_cell_angle_beta     89.9998
_cell_angle_gamma    89.9998

_space_group_name_H-M_alt    "P 1"
_space_group_IT_number       1

loop_
  _space_group_symop_operation_xyz
  'x, y, z'

loop_
  _atom_site_type_symbol
  _atom_site_label
  _atom_site_symmetry_multiplicity
  _atom_site_fract_x
  _atom_site_fract_y
  _atom_site_fract_z
  _atom_site_occupancy
  Gd  Gd1       1.0  0.78341  0.74943  0.41759  1.0000
  Gd  Gd2       1.0  0.28340  0.75057  0.08240  1.0000
  Gd  Gd3       1.0  0.21659  0.25058  0.58241  1.0000
  Gd  Gd4       1.0  0.71659  0.24943  0.91759  1.0000
  P   P1        1.0  0.97143  0.12410  0.34473  1.0000
  P   P2        1.0  0.47142  0.37590  0.15527  1.0000
  P   P3        1.0  0.02858  0.87590  0.65527  1.0000
  P   P4        1.0  0.52857  0.62410  0.84473  1.0000
  H   H1        1.0  0.82046  0.76404  0.17495  1.0000
  H   H2        1.0  0.32046  0.73596  0.32505  1.0000
  H   H3        1.0  0.17954  0.23596  0.82505  1.0000
  H   H4        1.0  0.67955  0.26404  0.67495  1.0000
  H   H5        1.0  0.64706  0.65221  0.18925  1.0000
  H   H6        1.0  0.14707  0.84779  0.31075  1.0000
  H   H7        1.0  0.35294  0.34779  0.81075  1.0000
  H   H8        1.0  0.85294  0.15221  0.68925  1.0000
  H   H9        1.0  0.01737  0.54376  0.27261  1.0000
  H   H10       1.0  0.51736  0.95624  0.22739  1.0000
  H   H11       1.0  0.98264  0.45624  0.72739  1.0000
  H   H12       1.0  0.48263  0.04375  0.77261  1.0000
  H   H13       1.0  0.09254  0.52398  0.39327  1.0000
  H   H14       1.0  0.59253  0.97602  0.10673  1.0000
  H   H15       1.0  0.90747  0.47603  0.60673  1.0000
  H   H16       1.0  0.40747  0.02397  0.89327  1.0000
  H   H17       1.0  0.81400  0.17405  0.29508  1.0000
  H   H18       1.0  0.31399  0.32595  0.20492  1.0000
  H   H19       1.0  0.18601  0.82595  0.70492  1.0000
  H   H20       1.0  0.68600  0.67405  0.79507  1.0000
  H   H21       1.0  0.10681  0.15600  0.26926  1.0000
  H   H22       1.0  0.60680  0.34400  0.23073  1.0000
  H   H23       1.0  0.89320  0.84401  0.73074  1.0000
  H   H24       1.0  0.39319  0.65599  0.76926  1.0000
  C   C1        1.0  0.57169  0.46761  0.53773  1.0000
  C   C2        1.0  0.07169  0.03239  0.96228  1.0000
  C   C3        1.0  0.42833  0.53239  0.46227  1.0000
  C   C4        1.0  0.92832  0.96761  0.03773  1.0000
  C   C5        1.0  0.48562  0.02554  0.44084  1.0000
  C   C6        1.0  0.98560  0.47445  0.05917  1.0000
  C   C7        1.0  0.51440  0.97444  0.55916  1.0000
  C   C8        1.0  0.01438  0.52555  0.94084  1.0000
  O   O1        1.0  0.72354  0.52927  0.53371  1.0000
  O   O2        1.0  0.22354  0.97073  0.96630  1.0000
  O   O3        1.0  0.27646  0.47073  0.46629  1.0000
  O   O4        1.0  0.77645  0.02927  0.03370  1.0000
  O   O5        1.0  0.58587  0.96134  0.36764  1.0000
  O   O6        1.0  0.08587  0.53866  0.13236  1.0000
  O   O7        1.0  0.41412  0.03867  0.63237  1.0000
  O   O8        1.0  0.91411  0.46132  0.86764  1.0000
  O   O9        1.0  0.96491  0.94503  0.35077  1.0000
  O   O10       1.0  0.46490  0.55497  0.14923  1.0000
  O   O11       1.0  0.03511  0.05497  0.64924  1.0000
  O   O12       1.0  0.53510  0.44503  0.85076  1.0000
  O   O13       1.0  0.74865  0.70678  0.22734  1.0000
  O   O14       1.0  0.24865  0.79322  0.27265  1.0000
  O   O15       1.0  0.25135  0.29322  0.77266  1.0000
  O   O16       1.0  0.75135  0.20678  0.72734  1.0000
  O   O17       1.0  0.98661  0.55455  0.35157  1.0000
  O   O18       1.0  0.48660  0.94545  0.14843  1.0000
  O   O19       1.0  0.01340  0.44545  0.64843  1.0000
  O   O20       1.0  0.51340  0.05455  0.85157  1.0000
  O   O21       1.0  0.47635  0.64129  0.40291  1.0000
  O   O22       1.0  0.97635  0.85871  0.09709  1.0000
  O   O23       1.0  0.52365  0.35870  0.59709  1.0000
  O   O24       1.0  0.02364  0.14130  0.90291  1.0000
  O   O25       1.0  0.63371  0.87431  0.57330  1.0000
  O   O26       1.0  0.13371  0.62568  0.92670  1.0000
  O   O27       1.0  0.36629  0.12570  0.42670  1.0000
  O   O28       1.0  0.86629  0.37430  0.07330  1.0000
  O   O29       1.0  0.00221  0.77876  0.54839  1.0000
  O   O30       1.0  0.50220  0.72125  0.95161  1.0000
  O   O31       1.0  0.99780  0.22125  0.45162  1.0000
  O   O32       1.0  0.49779  0.27875  0.04838  1.0000
