data_image0
_chemical_formula_structural       Dy4P4H24C8O32
_chemical_formula_sum              "Dy4 P4 H24 C8 O32"
_cell_length_a       7.67425
_cell_length_b       8.40042
_cell_length_c       11.929
_cell_angle_alpha    93.0489
_cell_angle_beta     89.9999
_cell_angle_gamma    89.9999

_space_group_name_H-M_alt    "P 1"
_space_group_IT_number       1

loop_
  _space_group_symop_operation_xyz
  'x, y, z'

loop_
  _atom_site_type_symbol
  _atom_site_label
  _atom_site_symmetry_multiplicity
  _atom_site_fract_x
  _atom_site_fract_y
  _atom_site_fract_z
  _atom_site_occupancy
  Dy  Dy1       1.0  0.77583  0.25264  0.08108  1.0000
  Dy  Dy2       1.0  0.27583  0.24736  0.41892  1.0000
  Dy  Dy3       1.0  0.22417  0.74736  0.91892  1.0000
  Dy  Dy4       1.0  0.72417  0.75264  0.58108  1.0000
  P   P1        1.0  0.98019  0.88135  0.15994  1.0000
  P   P2        1.0  0.48019  0.61864  0.34006  1.0000
  P   P3        1.0  0.01980  0.11864  0.84006  1.0000
  P   P4        1.0  0.51980  0.38136  0.65994  1.0000
  H   H1        1.0  0.64805  0.33395  0.31711  1.0000
  H   H2        1.0  0.14805  0.16605  0.18289  1.0000
  H   H3        1.0  0.35194  0.66605  0.68290  1.0000
  H   H4        1.0  0.85194  0.83395  0.81710  1.0000
  H   H5        1.0  0.82043  0.22074  0.32680  1.0000
  H   H6        1.0  0.32043  0.27926  0.17320  1.0000
  H   H7        1.0  0.17957  0.77926  0.67320  1.0000
  H   H8        1.0  0.67956  0.72074  0.82680  1.0000
  H   H9        1.0  0.99437  0.47238  0.22547  1.0000
  H   H10       1.0  0.49437  0.02762  0.27453  1.0000
  H   H11       1.0  0.00563  0.52762  0.77453  1.0000
  H   H12       1.0  0.50562  0.97238  0.72547  1.0000
  H   H13       1.0  0.97996  0.56143  0.11036  1.0000
  H   H14       1.0  0.47996  0.93857  0.38964  1.0000
  H   H15       1.0  0.02004  0.43857  0.88964  1.0000
  H   H16       1.0  0.52004  0.06143  0.61036  1.0000
  H   H17       1.0  0.82636  0.83544  0.21454  1.0000
  H   H18       1.0  0.32636  0.66456  0.28546  1.0000
  H   H19       1.0  0.17364  0.16456  0.78546  1.0000
  H   H20       1.0  0.67364  0.33544  0.71454  1.0000
  H   H21       1.0  0.11384  0.86702  0.24055  1.0000
  H   H22       1.0  0.61384  0.63298  0.25946  1.0000
  H   H23       1.0  0.88616  0.13298  0.75945  1.0000
  H   H24       1.0  0.38616  0.36702  0.74055  1.0000
  C   C1        1.0  0.56894  0.53083  0.95964  1.0000
  C   C2        1.0  0.06894  0.96917  0.54036  1.0000
  C   C3        1.0  0.43107  0.46918  0.04036  1.0000
  C   C4        1.0  0.93107  0.03082  0.45964  1.0000
  C   C5        1.0  0.48596  0.97266  0.06040  1.0000
  C   C6        1.0  0.98596  0.52735  0.43960  1.0000
  C   C7        1.0  0.51404  0.02735  0.93960  1.0000
  C   C8        1.0  0.01404  0.47265  0.56040  1.0000
  O   O1        1.0  0.71737  0.46855  0.96040  1.0000
  O   O2        1.0  0.21737  0.03144  0.53960  1.0000
  O   O3        1.0  0.28264  0.53144  0.03960  1.0000
  O   O4        1.0  0.78264  0.96856  0.46040  1.0000
  O   O5        1.0  0.51780  0.64152  0.89790  1.0000
  O   O6        1.0  0.01780  0.85848  0.60210  1.0000
  O   O7        1.0  0.48221  0.35848  0.10210  1.0000
  O   O8        1.0  0.98221  0.14152  0.39790  1.0000
  O   O9        1.0  0.58561  0.03421  0.13556  1.0000
  O   O10       1.0  0.08561  0.46580  0.36444  1.0000
  O   O11       1.0  0.41439  0.96581  0.86444  1.0000
  O   O12       1.0  0.91439  0.53419  0.63556  1.0000
  O   O13       1.0  0.36676  0.87213  0.07479  1.0000
  O   O14       1.0  0.86676  0.62787  0.42522  1.0000
  O   O15       1.0  0.63325  0.12788  0.92521  1.0000
  O   O16       1.0  0.13324  0.37212  0.57479  1.0000
  O   O17       1.0  0.96844  0.05797  0.13499  1.0000
  O   O18       1.0  0.46843  0.44203  0.36501  1.0000
  O   O19       1.0  0.03156  0.94202  0.86501  1.0000
  O   O20       1.0  0.53156  0.55797  0.63499  1.0000
  O   O21       1.0  0.01193  0.76211  0.06092  1.0000
  O   O22       1.0  0.51193  0.73788  0.43908  1.0000
  O   O23       1.0  0.98807  0.23788  0.93908  1.0000
  O   O24       1.0  0.48807  0.26212  0.56092  1.0000
  O   O25       1.0  0.73872  0.27226  0.27467  1.0000
  O   O26       1.0  0.23872  0.22775  0.22533  1.0000
  O   O27       1.0  0.26128  0.72775  0.72533  1.0000
  O   O28       1.0  0.76128  0.77225  0.77467  1.0000
  O   O29       1.0  0.93494  0.47104  0.15145  1.0000
  O   O30       1.0  0.43494  0.02896  0.34855  1.0000
  O   O31       1.0  0.06506  0.52896  0.84855  1.0000
  O   O32       1.0  0.56505  0.97104  0.65145  1.0000
