data_image0
_chemical_formula_structural       Cd4H56C24I8N8
_chemical_formula_sum              "Cd4 H56 C24 I8 N8"
_cell_length_a       9.50185
_cell_length_b       10.9444
_cell_length_c       12.0168
_cell_angle_alpha    89.9999
_cell_angle_beta     90
_cell_angle_gamma    109.248

_space_group_name_H-M_alt    "P 1"
_space_group_IT_number       1

loop_
  _space_group_symop_operation_xyz
  'x, y, z'

loop_
  _atom_site_type_symbol
  _atom_site_label
  _atom_site_symmetry_multiplicity
  _atom_site_fract_x
  _atom_site_fract_y
  _atom_site_fract_z
  _atom_site_occupancy
  Cd  Cd1       1.0  0.73156  0.49978  0.85583  1.0000
  Cd  Cd2       1.0  0.26844  0.50022  0.35583  1.0000
  Cd  Cd3       1.0  0.70485  0.45572  0.48885  1.0000
  Cd  Cd4       1.0  0.29516  0.54428  0.98885  1.0000
  H   H1        1.0  0.73461  0.80367  0.87209  1.0000
  H   H2        1.0  0.26539  0.19633  0.37209  1.0000
  H   H3        1.0  0.63497  0.89413  0.71817  1.0000
  H   H4        1.0  0.36503  0.10587  0.21817  1.0000
  H   H5        1.0  0.75695  0.85825  0.62213  1.0000
  H   H6        1.0  0.24305  0.14175  0.12213  1.0000
  H   H7        1.0  0.85119  0.09154  0.66371  1.0000
  H   H8        1.0  0.14881  0.90846  0.16371  1.0000
  H   H9        1.0  0.85160  0.06205  0.80774  1.0000
  H   H10       1.0  0.14840  0.93795  0.30774  1.0000
  H   H11       1.0  0.04085  0.97895  0.63584  1.0000
  H   H12       1.0  0.95915  0.02106  0.13584  1.0000
  H   H13       1.0  0.10721  0.10924  0.73102  1.0000
  H   H14       1.0  0.89279  0.89076  0.23102  1.0000
  H   H15       1.0  0.02564  0.95525  0.89083  1.0000
  H   H16       1.0  0.97436  0.04475  0.39083  1.0000
  H   H17       1.0  0.15375  0.91193  0.80611  1.0000
  H   H18       1.0  0.84625  0.08807  0.30611  1.0000
  H   H19       1.0  0.95062  0.74494  0.71065  1.0000
  H   H20       1.0  0.04938  0.25506  0.21065  1.0000
  H   H21       1.0  0.66761  0.17806  0.82693  1.0000
  H   H22       1.0  0.33239  0.82194  0.32693  1.0000
  H   H23       1.0  0.38206  0.09734  0.96738  1.0000
  H   H24       1.0  0.61794  0.90266  0.46738  1.0000
  H   H25       1.0  0.40254  0.03645  0.83455  1.0000
  H   H26       1.0  0.59747  0.96355  0.33455  1.0000
  H   H27       1.0  0.57703  0.93197  0.90783  1.0000
  H   H28       1.0  0.42297  0.06802  0.40783  1.0000
  H   H29       1.0  0.41271  0.88308  0.98697  1.0000
  H   H30       1.0  0.58729  0.11692  0.48697  1.0000
  H   H31       1.0  0.53476  0.03878  0.13708  1.0000
  H   H32       1.0  0.46524  0.96122  0.63708  1.0000
  H   H33       1.0  0.64543  0.94102  0.10586  1.0000
  H   H34       1.0  0.35457  0.05898  0.60586  1.0000
  H   H35       1.0  0.81072  0.11602  0.98568  1.0000
  H   H36       1.0  0.18928  0.88397  0.48568  1.0000
  H   H37       1.0  0.80105  0.17641  0.12062  1.0000
  H   H38       1.0  0.19895  0.82359  0.62062  1.0000
  H   H39       1.0  0.60822  0.26987  0.05654  1.0000
  H   H40       1.0  0.39178  0.73013  0.55654  1.0000
  H   H41       1.0  0.67541  0.64242  0.67110  1.0000
  H   H42       1.0  0.32460  0.35758  0.17110  1.0000
  H   H43       1.0  0.55689  0.64793  0.76871  1.0000
  H   H44       1.0  0.44311  0.35207  0.26871  1.0000
  H   H45       1.0  0.93662  0.72826  0.95511  1.0000
  H   H46       1.0  0.06338  0.27174  0.45511  1.0000
  H   H47       1.0  0.03759  0.67371  0.86917  1.0000
  H   H48       1.0  0.96241  0.32629  0.36917  1.0000
  H   H49       1.0  0.44437  0.30106  0.88118  1.0000
  H   H50       1.0  0.55563  0.69894  0.38118  1.0000
  H   H51       1.0  0.51274  0.28285  0.75962  1.0000
  H   H52       1.0  0.48726  0.71715  0.25962  1.0000
  H   H53       1.0  0.89715  0.34421  0.94367  1.0000
  H   H54       1.0  0.10285  0.65578  0.44367  1.0000
  H   H55       1.0  0.84421  0.41145  0.05030  1.0000
  H   H56       1.0  0.15579  0.58854  0.55031  1.0000
  C   C1        1.0  0.76654  0.78581  0.78672  1.0000
  C   C2        1.0  0.23346  0.21419  0.28672  1.0000
  C   C3        1.0  0.74851  0.89001  0.70819  1.0000
  C   C4        1.0  0.25149  0.10999  0.20819  1.0000
  C   C5        1.0  0.86604  0.02274  0.72559  1.0000
  C   C6        1.0  0.13396  0.97726  0.22559  1.0000
  C   C7        1.0  0.02280  0.01350  0.71914  1.0000
  C   C8        1.0  0.97720  0.98650  0.21913  1.0000
  C   C9        1.0  0.04095  0.91915  0.80731  1.0000
  C   C10       1.0  0.95905  0.08085  0.30731  1.0000
  C   C11       1.0  0.92758  0.78386  0.79096  1.0000
  C   C12       1.0  0.07242  0.21614  0.29096  1.0000
  C   C13       1.0  0.59193  0.19705  0.88918  1.0000
  C   C14       1.0  0.40807  0.80295  0.38918  1.0000
  C   C15       1.0  0.46198  0.07244  0.91279  1.0000
  C   C16       1.0  0.53802  0.92756  0.41279  1.0000
  C   C17       1.0  0.51123  0.96705  0.96768  1.0000
  C   C18       1.0  0.48877  0.03294  0.46768  1.0000
  C   C19       1.0  0.60441  0.01646  0.07192  1.0000
  C   C20       1.0  0.39559  0.98353  0.57192  1.0000
  C   C21       1.0  0.73471  0.13842  0.04568  1.0000
  C   C22       1.0  0.26529  0.86158  0.54568  1.0000
  C   C23       1.0  0.68216  0.24492  0.99624  1.0000
  C   C24       1.0  0.31784  0.75508  0.49624  1.0000
  I   I1        1.0  0.88204  0.39746  0.65580  1.0000
  I   I2        1.0  0.11797  0.60254  0.15580  1.0000
  I   I3        1.0  0.41050  0.40197  0.56844  1.0000
  I   I4        1.0  0.58951  0.59803  0.06844  1.0000
  I   I5        1.0  0.83900  0.71902  0.44013  1.0000
  I   I6        1.0  0.16100  0.28099  0.94013  1.0000
  I   I7        1.0  0.70437  0.32329  0.29205  1.0000
  I   I8        1.0  0.29563  0.67671  0.79205  1.0000
  N   N1        1.0  0.66634  0.65527  0.75507  1.0000
  N   N2        1.0  0.33366  0.34473  0.25508  1.0000
  N   N3        1.0  0.93788  0.69076  0.87716  1.0000
  N   N4        1.0  0.06212  0.30924  0.37716  1.0000
  N   N5        1.0  0.54028  0.29986  0.84192  1.0000
  N   N6        1.0  0.45972  0.70014  0.34192  1.0000
  N   N7        1.0  0.80772  0.36541  0.97618  1.0000
  N   N8        1.0  0.19228  0.63459  0.47618  1.0000
