data_image0
_chemical_formula_structural       Na2MgH24C20O24
_chemical_formula_sum              "Na2 Mg1 H24 C20 O24"
_cell_length_a       7.26269
_cell_length_b       10.2897
_cell_length_c       10.527
_cell_angle_alpha    85.6218
_cell_angle_beta     69.8614
_cell_angle_gamma    76.8827

_space_group_name_H-M_alt    "P 1"
_space_group_IT_number       1

loop_
  _space_group_symop_operation_xyz
  'x, y, z'

loop_
  _atom_site_type_symbol
  _atom_site_label
  _atom_site_symmetry_multiplicity
  _atom_site_fract_x
  _atom_site_fract_y
  _atom_site_fract_z
  _atom_site_occupancy
  Na  Na1       1.0  0.30210  0.64011  0.99958  1.0000
  Na  Na2       1.0  0.69790  0.35989  0.00042  1.0000
  Mg  Mg1       1.0  1.00000  0.00000  0.00000  1.0000
  H   H1        1.0  0.37286  0.49903  0.25473  1.0000
  H   H2        1.0  0.62715  0.50097  0.74527  1.0000
  H   H3        1.0  0.12601  0.50027  0.74825  1.0000
  H   H4        1.0  0.87399  0.49972  0.25176  1.0000
  H   H5        1.0  0.92570  0.83358  0.51818  1.0000
  H   H6        1.0  0.55593  0.16571  0.51915  1.0000
  H   H7        1.0  0.07432  0.16642  0.48182  1.0000
  H   H8        1.0  0.44406  0.83428  0.48085  1.0000
  H   H9        1.0  0.31490  0.88449  0.07859  1.0000
  H   H10       1.0  0.60810  0.11807  0.08137  1.0000
  H   H11       1.0  0.68508  0.11551  0.92142  1.0000
  H   H12       1.0  0.39190  0.88194  0.91864  1.0000
  H   H13       1.0  0.34397  0.36767  0.92131  1.0000
  H   H14       1.0  0.73537  0.63208  0.92037  1.0000
  H   H15       1.0  0.65604  0.63234  0.07869  1.0000
  H   H16       1.0  0.26463  0.36792  0.07964  1.0000
  H   H17       1.0  0.78925  0.06605  0.26569  1.0000
  H   H18       1.0  0.94784  0.93316  0.26525  1.0000
  H   H19       1.0  0.21074  0.93395  0.73431  1.0000
  H   H20       1.0  0.05216  0.06685  0.73475  1.0000
  H   H21       1.0  0.04142  0.22565  0.08040  1.0000
  H   H22       1.0  0.87892  0.77430  0.07979  1.0000
  H   H23       1.0  0.95858  0.77435  0.91960  1.0000
  H   H24       1.0  0.12108  0.22571  0.92021  1.0000
  C   C1        1.0  0.31804  0.49929  0.36460  1.0000
  C   C2        1.0  0.68196  0.50070  0.63539  1.0000
  C   C3        1.0  0.18104  0.50005  0.63840  1.0000
  C   C4        1.0  0.81895  0.49994  0.36160  1.0000
  C   C5        1.0  0.11119  0.61429  0.57330  1.0000
  C   C6        1.0  0.31579  0.38543  0.57352  1.0000
  C   C7        1.0  0.88882  0.38571  0.42670  1.0000
  C   C8        1.0  0.68420  0.61457  0.42648  1.0000
  C   C9        1.0  0.18624  0.61490  0.42962  1.0000
  C   C10       1.0  0.38480  0.38408  0.42979  1.0000
  C   C11       1.0  0.81376  0.38510  0.57038  1.0000
  C   C12       1.0  0.61519  0.61591  0.57022  1.0000
  C   C13       1.0  0.14110  0.72685  0.33446  1.0000
  C   C14       1.0  0.52515  0.27163  0.33492  1.0000
  C   C15       1.0  0.85891  0.27315  0.66554  1.0000
  C   C16       1.0  0.47486  0.72836  0.66507  1.0000
  C   C17       1.0  0.96227  0.72149  0.67122  1.0000
  C   C18       1.0  0.36584  0.27852  0.67176  1.0000
  C   C19       1.0  0.03774  0.27851  0.32878  1.0000
  C   C20       1.0  0.63417  0.72147  0.32824  1.0000
  O   O1        1.0  0.24302  0.71571  0.21112  1.0000
  O   O2        1.0  0.54663  0.28204  0.21148  1.0000
  O   O3        1.0  0.75698  0.28428  0.78888  1.0000
  O   O4        1.0  0.45338  0.71796  0.78852  1.0000
  O   O5        1.0  0.87553  0.83149  0.62833  1.0000
  O   O6        1.0  0.49540  0.16823  0.62909  1.0000
  O   O7        1.0  0.12448  0.16851  0.37166  1.0000
  O   O8        1.0  0.50459  0.83177  0.37092  1.0000
  O   O9        1.0  0.99728  0.82809  0.38346  1.0000
  O   O10       1.0  0.61988  0.17074  0.38410  1.0000
  O   O11       1.0  0.00274  0.17192  0.61654  1.0000
  O   O12       1.0  0.38010  0.82925  0.61590  1.0000
  O   O13       1.0  0.92361  0.69923  0.79533  1.0000
  O   O14       1.0  0.27975  0.30127  0.79580  1.0000
  O   O15       1.0  0.07639  0.30076  0.20467  1.0000
  O   O16       1.0  0.72027  0.69873  0.20419  1.0000
  O   O17       1.0  0.30079  0.93493  0.99840  1.0000
  O   O18       1.0  0.69919  0.06508  0.00161  1.0000
  O   O19       1.0  0.35150  0.40891  0.00052  1.0000
  O   O20       1.0  0.64849  0.59110  0.99948  1.0000
  O   O21       1.0  0.89976  0.99992  0.20369  1.0000
  O   O22       1.0  0.10025  0.00008  0.79631  1.0000
  O   O23       1.0  0.01128  0.20351  0.00031  1.0000
  O   O24       1.0  0.98871  0.79650  0.99969  1.0000
