data_image0
_chemical_formula_structural       Li4H20C20N8O12
_chemical_formula_sum              "Li4 H20 C20 N8 O12"
_cell_length_a       4.74213
_cell_length_b       5.60394
_cell_length_c       24.1353
_cell_angle_alpha    90
_cell_angle_beta     90.0004
_cell_angle_gamma    90.0002

_space_group_name_H-M_alt    "P 1"
_space_group_IT_number       1

loop_
  _space_group_symop_operation_xyz
  'x, y, z'

loop_
  _atom_site_type_symbol
  _atom_site_label
  _atom_site_symmetry_multiplicity
  _atom_site_fract_x
  _atom_site_fract_y
  _atom_site_fract_z
  _atom_site_occupancy
  Li  Li1       1.0  0.93043  0.04254  0.27471  1.0000
  Li  Li2       1.0  0.06957  0.54254  0.72529  1.0000
  Li  Li3       1.0  0.06958  0.04254  0.77470  1.0000
  Li  Li4       1.0  0.93043  0.54255  0.22530  1.0000
  H   H1        1.0  0.50131  0.01690  0.48146  1.0000
  H   H2        1.0  0.49867  0.51689  0.51853  1.0000
  H   H3        1.0  0.49869  0.01691  0.98146  1.0000
  H   H4        1.0  0.50129  0.51692  0.01854  1.0000
  H   H5        1.0  0.57733  0.21543  0.38963  1.0000
  H   H6        1.0  0.42267  0.71543  0.61037  1.0000
  H   H7        1.0  0.42268  0.21543  0.88962  1.0000
  H   H8        1.0  0.57733  0.71545  0.11038  1.0000
  H   H9        1.0  0.09228  0.49688  0.43984  1.0000
  H   H10       1.0  0.90772  0.99686  0.56016  1.0000
  H   H11       1.0  0.90772  0.49688  0.93984  1.0000
  H   H12       1.0  0.09227  0.99690  0.06016  1.0000
  H   H13       1.0  0.51624  0.78394  0.25195  1.0000
  H   H14       1.0  0.48376  0.28393  0.74805  1.0000
  H   H15       1.0  0.48376  0.78393  0.75195  1.0000
  H   H16       1.0  0.51624  0.28394  0.24805  1.0000
  H   H17       1.0  0.59249  0.90832  0.19628  1.0000
  H   H18       1.0  0.40751  0.40832  0.80372  1.0000
  H   H19       1.0  0.40751  0.90831  0.69628  1.0000
  H   H20       1.0  0.59250  0.40832  0.30372  1.0000
  C   C1        1.0  0.01827  0.76924  0.37777  1.0000
  C   C2        1.0  0.98173  0.26923  0.62223  1.0000
  C   C3        1.0  0.98174  0.76924  0.87777  1.0000
  C   C4        1.0  0.01826  0.26926  0.12223  1.0000
  C   C5        1.0  0.22415  0.67151  0.33594  1.0000
  C   C6        1.0  0.77585  0.17150  0.66406  1.0000
  C   C7        1.0  0.77585  0.67150  0.83594  1.0000
  C   C8        1.0  0.22416  0.17151  0.16406  1.0000
  C   C9        1.0  0.65332  0.94334  0.45188  1.0000
  C   C10       1.0  0.34668  0.44333  0.54812  1.0000
  C   C11       1.0  0.34668  0.94334  0.95188  1.0000
  C   C12       1.0  0.65331  0.44336  0.04812  1.0000
  C   C13       1.0  0.69417  0.05452  0.40065  1.0000
  C   C14       1.0  0.30583  0.55451  0.59935  1.0000
  C   C15       1.0  0.30584  0.05452  0.90065  1.0000
  C   C16       1.0  0.69417  0.55454  0.09936  1.0000
  C   C17       1.0  0.97659  0.65888  0.42916  1.0000
  C   C18       1.0  0.02341  0.15886  0.57084  1.0000
  C   C19       1.0  0.02341  0.65888  0.92916  1.0000
  C   C20       1.0  0.97659  0.15889  0.07084  1.0000
  N   N1        1.0  0.87510  0.96650  0.36319  1.0000
  N   N2        1.0  0.12490  0.46650  0.63681  1.0000
  N   N3        1.0  0.12490  0.96650  0.86319  1.0000
  N   N4        1.0  0.87511  0.46651  0.13681  1.0000
  N   N5        1.0  0.79321  0.74466  0.46634  1.0000
  N   N6        1.0  0.20678  0.24464  0.53366  1.0000
  N   N7        1.0  0.20679  0.74467  0.96634  1.0000
  N   N8        1.0  0.79320  0.24469  0.03366  1.0000
  O   O1        1.0  0.20108  0.74962  0.28620  1.0000
  O   O2        1.0  0.79893  0.24961  0.71380  1.0000
  O   O3        1.0  0.79892  0.74961  0.78620  1.0000
  O   O4        1.0  0.20108  0.24962  0.21380  1.0000
  O   O5        1.0  0.40331  0.52280  0.35314  1.0000
  O   O6        1.0  0.59669  0.02279  0.64686  1.0000
  O   O7        1.0  0.59669  0.52280  0.85314  1.0000
  O   O8        1.0  0.40330  0.02282  0.14686  1.0000
  O   O9        1.0  0.68394  0.82931  0.22923  1.0000
  O   O10       1.0  0.31606  0.32931  0.77077  1.0000
  O   O11       1.0  0.31606  0.82931  0.72923  1.0000
  O   O12       1.0  0.68394  0.32931  0.27077  1.0000
