data_image0
_chemical_formula_structural       Mn4H24C36O28
_chemical_formula_sum              "Mn4 H24 C36 O28"
_cell_length_a       8.50996
_cell_length_b       9.63657
_cell_length_c       11.0913
_cell_angle_alpha    91.2103
_cell_angle_beta     89.9973
_cell_angle_gamma    90.0062

_space_group_name_H-M_alt    "P 1"
_space_group_IT_number       1

loop_
  _space_group_symop_operation_xyz
  'x, y, z'

loop_
  _atom_site_type_symbol
  _atom_site_label
  _atom_site_symmetry_multiplicity
  _atom_site_fract_x
  _atom_site_fract_y
  _atom_site_fract_z
  _atom_site_occupancy
  Mn  Mn1       1.0  0.51043  0.21265  0.13348  1.0000
  Mn  Mn2       1.0  0.01040  0.28728  0.86652  1.0000
  Mn  Mn3       1.0  0.48952  0.78741  0.86651  1.0000
  Mn  Mn4       1.0  0.98957  0.71264  0.13348  1.0000
  H   H1        1.0  0.47916  0.40663  0.71030  1.0000
  H   H2        1.0  0.97914  0.09331  0.28970  1.0000
  H   H3        1.0  0.52087  0.59335  0.28975  1.0000
  H   H4        1.0  0.02082  0.90670  0.71027  1.0000
  H   H5        1.0  0.52329  0.31697  0.50234  1.0000
  H   H6        1.0  0.02328  0.18303  0.49765  1.0000
  H   H7        1.0  0.47674  0.68306  0.49768  1.0000
  H   H8        1.0  0.97668  0.81697  0.50231  1.0000
  H   H9        1.0  0.26078  0.02020  0.15017  1.0000
  H   H10       1.0  0.76080  0.47981  0.84985  1.0000
  H   H11       1.0  0.73920  0.97977  0.84981  1.0000
  H   H12       1.0  0.23923  0.52021  0.15018  1.0000
  H   H13       1.0  0.31027  0.03569  0.01017  1.0000
  H   H14       1.0  0.81029  0.46431  0.98983  1.0000
  H   H15       1.0  0.68971  0.96429  0.98981  1.0000
  H   H16       1.0  0.18972  0.53569  0.01018  1.0000
  H   H17       1.0  0.63467  0.31723  0.93251  1.0000
  H   H18       1.0  0.13465  0.18277  0.06749  1.0000
  H   H19       1.0  0.36536  0.68276  0.06750  1.0000
  H   H20       1.0  0.86535  0.81721  0.93251  1.0000
  H   H21       1.0  0.50825  0.21155  0.87745  1.0000
  H   H22       1.0  0.00825  0.28844  0.12256  1.0000
  H   H23       1.0  0.49176  0.78846  0.12255  1.0000
  H   H24       1.0  0.99175  0.71156  0.87743  1.0000
  C   C1        1.0  0.34703  0.32587  0.31396  1.0000
  C   C2        1.0  0.84700  0.17413  0.68604  1.0000
  C   C3        1.0  0.65303  0.67416  0.68604  1.0000
  C   C4        1.0  0.15300  0.82585  0.31395  1.0000
  C   C5        1.0  0.29672  0.37721  0.43670  1.0000
  C   C6        1.0  0.79672  0.12279  0.56329  1.0000
  C   C7        1.0  0.70333  0.62279  0.56328  1.0000
  C   C8        1.0  0.20327  0.87720  0.43671  1.0000
  C   C9        1.0  0.15136  0.43822  0.46760  1.0000
  C   C10       1.0  0.65135  0.06178  0.53240  1.0000
  C   C11       1.0  0.84868  0.56176  0.53240  1.0000
  C   C12       1.0  0.34862  0.93822  0.46759  1.0000
  C   C13       1.0  0.12823  0.49406  0.58527  1.0000
  C   C14       1.0  0.62821  0.00593  0.41473  1.0000
  C   C15       1.0  0.87180  0.50593  0.41472  1.0000
  C   C16       1.0  0.37176  0.99406  0.58527  1.0000
  C   C17       1.0  0.24724  0.48405  0.67239  1.0000
  C   C18       1.0  0.74721  0.01597  0.32759  1.0000
  C   C19       1.0  0.75280  0.51596  0.32759  1.0000
  C   C20       1.0  0.25276  0.98405  0.67241  1.0000
  C   C21       1.0  0.38742  0.41650  0.64273  1.0000
  C   C22       1.0  0.88741  0.08350  0.35726  1.0000
  C   C23       1.0  0.61263  0.58353  0.35727  1.0000
  C   C24       1.0  0.11257  0.91649  0.64273  1.0000
  C   C25       1.0  0.41164  0.36527  0.52622  1.0000
  C   C26       1.0  0.91164  0.13472  0.47377  1.0000
  C   C27       1.0  0.58839  0.63476  0.47377  1.0000
  C   C28       1.0  0.08831  0.86529  0.52622  1.0000
  C   C29       1.0  0.23202  0.54093  0.79908  1.0000
  C   C30       1.0  0.73200  0.95908  0.20091  1.0000
  C   C31       1.0  0.76798  0.45909  0.20091  1.0000
  C   C32       1.0  0.26797  0.04090  0.79909  1.0000
  C   C33       1.0  0.01980  0.43526  0.38131  1.0000
  C   C34       1.0  0.51979  0.06474  0.61871  1.0000
  C   C35       1.0  0.98021  0.56474  0.61875  1.0000
  C   C36       1.0  0.48017  0.93526  0.38124  1.0000
  O   O1        1.0  0.41039  0.20542  0.31039  1.0000
  O   O2        1.0  0.91038  0.29458  0.68960  1.0000
  O   O3        1.0  0.58955  0.79456  0.68966  1.0000
  O   O4        1.0  0.08959  0.70542  0.31039  1.0000
  O   O5        1.0  0.34781  0.40190  0.22165  1.0000
  O   O6        1.0  0.84776  0.09812  0.77837  1.0000
  O   O7        1.0  0.65218  0.59819  0.77838  1.0000
  O   O8        1.0  0.15221  0.90186  0.22163  1.0000
  O   O9        1.0  0.16182  0.46607  0.87715  1.0000
  O   O10       1.0  0.66177  0.03392  0.12284  1.0000
  O   O11       1.0  0.83824  0.53394  0.12285  1.0000
  O   O12       1.0  0.33824  0.96602  0.87713  1.0000
  O   O13       1.0  0.29890  0.65412  0.82552  1.0000
  O   O14       1.0  0.79886  0.84588  0.17450  1.0000
  O   O15       1.0  0.70118  0.34586  0.17452  1.0000
  O   O16       1.0  0.20114  0.15409  0.82550  1.0000
  O   O17       1.0  0.02996  0.36759  0.28481  1.0000
  O   O18       1.0  0.52992  0.13245  0.71520  1.0000
  O   O19       1.0  0.97007  0.63245  0.71524  1.0000
  O   O20       1.0  0.47006  0.86753  0.28476  1.0000
  O   O21       1.0  0.29894  0.08816  0.08951  1.0000
  O   O22       1.0  0.79896  0.41184  0.91049  1.0000
  O   O23       1.0  0.70103  0.91183  0.91047  1.0000
  O   O24       1.0  0.20106  0.58816  0.08953  1.0000
  O   O25       1.0  0.53374  0.26746  0.94967  1.0000
  O   O26       1.0  0.03372  0.23252  0.05035  1.0000
  O   O27       1.0  0.46624  0.73258  0.05032  1.0000
  O   O28       1.0  0.96626  0.76746  0.94965  1.0000
