data_image0
_chemical_formula_structural       K4H28C16S8O8
_chemical_formula_sum              "K4 H28 C16 S8 O8"
_cell_length_a       6.69614
_cell_length_b       9.50011
_cell_length_c       12.7924
_cell_angle_alpha    89.9998
_cell_angle_beta     89.9998
_cell_angle_gamma    104.901

_space_group_name_H-M_alt    "P 1"
_space_group_IT_number       1

loop_
  _space_group_symop_operation_xyz
  'x, y, z'

loop_
  _atom_site_type_symbol
  _atom_site_label
  _atom_site_symmetry_multiplicity
  _atom_site_fract_x
  _atom_site_fract_y
  _atom_site_fract_z
  _atom_site_occupancy
  K   K1        1.0  0.83565  0.47638  0.63538  1.0000
  K   K2        1.0  0.66436  0.52362  0.13538  1.0000
  K   K3        1.0  0.16436  0.52362  0.36463  1.0000
  K   K4        1.0  0.33564  0.47638  0.86462  1.0000
  H   H1        1.0  0.80763  0.00503  0.52036  1.0000
  H   H2        1.0  0.69236  0.99497  0.02036  1.0000
  H   H3        1.0  0.19237  0.99497  0.47964  1.0000
  H   H4        1.0  0.30763  0.00503  0.97964  1.0000
  H   H5        1.0  0.99791  0.17210  0.49377  1.0000
  H   H6        1.0  0.50209  0.82790  0.99377  1.0000
  H   H7        1.0  0.00210  0.82790  0.50623  1.0000
  H   H8        1.0  0.49790  0.17210  0.00624  1.0000
  H   H9        1.0  0.68772  0.12002  0.37247  1.0000
  H   H10       1.0  0.81227  0.87998  0.87247  1.0000
  H   H11       1.0  0.31228  0.87999  0.62753  1.0000
  H   H12       1.0  0.18771  0.12002  0.12753  1.0000
  H   H13       1.0  0.52644  0.13060  0.48164  1.0000
  H   H14       1.0  0.97356  0.86940  0.98163  1.0000
  H   H15       1.0  0.47356  0.86940  0.51836  1.0000
  H   H16       1.0  0.02644  0.13060  0.01836  1.0000
  H   H17       1.0  0.10340  0.14603  0.67031  1.0000
  H   H18       1.0  0.39660  0.85397  0.17031  1.0000
  H   H19       1.0  0.89660  0.85397  0.32969  1.0000
  H   H20       1.0  0.60340  0.14603  0.82969  1.0000
  H   H21       1.0  0.88467  0.99949  0.70494  1.0000
  H   H22       1.0  0.61534  0.00051  0.20494  1.0000
  H   H23       1.0  0.11533  0.00051  0.29506  1.0000
  H   H24       1.0  0.38467  0.99949  0.79506  1.0000
  H   H25       1.0  0.93556  0.17193  0.77244  1.0000
  H   H26       1.0  0.56445  0.82806  0.27244  1.0000
  H   H27       1.0  0.06444  0.82807  0.22756  1.0000
  H   H28       1.0  0.43556  0.17194  0.72757  1.0000
  C   C1        1.0  0.61200  0.38816  0.38384  1.0000
  C   C2        1.0  0.88800  0.61185  0.88384  1.0000
  C   C3        1.0  0.38800  0.61185  0.61616  1.0000
  C   C4        1.0  0.11199  0.38815  0.11617  1.0000
  C   C5        1.0  0.83801  0.12513  0.52168  1.0000
  C   C6        1.0  0.66199  0.87487  0.02168  1.0000
  C   C7        1.0  0.16199  0.87487  0.47832  1.0000
  C   C8        1.0  0.33801  0.12513  0.97832  1.0000
  C   C9        1.0  0.68427  0.16737  0.45063  1.0000
  C   C10       1.0  0.81573  0.83263  0.95063  1.0000
  C   C11       1.0  0.31573  0.83263  0.54937  1.0000
  C   C12       1.0  0.18426  0.16737  0.04937  1.0000
  C   C13       1.0  0.94149  0.11876  0.69695  1.0000
  C   C14       1.0  0.55851  0.88124  0.19695  1.0000
  C   C15       1.0  0.05851  0.88124  0.30305  1.0000
  C   C16       1.0  0.44149  0.11876  0.80305  1.0000
  S   S1        1.0  0.68942  0.57263  0.38752  1.0000
  S   S2        1.0  0.81059  0.42737  0.88752  1.0000
  S   S3        1.0  0.31059  0.42737  0.61248  1.0000
  S   S4        1.0  0.18940  0.57263  0.11248  1.0000
  S   S5        1.0  0.40971  0.28521  0.31820  1.0000
  S   S6        1.0  0.09030  0.71479  0.81820  1.0000
  S   S7        1.0  0.59030  0.71479  0.68180  1.0000
  S   S8        1.0  0.90970  0.28521  0.18180  1.0000
  O   O1        1.0  0.73776  0.32465  0.44270  1.0000
  O   O2        1.0  0.76224  0.67536  0.94270  1.0000
  O   O3        1.0  0.26224  0.67536  0.55730  1.0000
  O   O4        1.0  0.23775  0.32464  0.05730  1.0000
  O   O5        1.0  0.81538  0.17348  0.62549  1.0000
  O   O6        1.0  0.68462  0.82652  0.12548  1.0000
  O   O7        1.0  0.18462  0.82652  0.37451  1.0000
  O   O8        1.0  0.31538  0.17348  0.87452  1.0000
