data_image0
_chemical_formula_structural       Ga4H20C16O28
_chemical_formula_sum              "Ga4 H20 C16 O28"
_cell_length_a       8.6949
_cell_length_b       10.6478
_cell_length_c       10.6476
_cell_angle_alpha    60.1745
_cell_angle_beta     65.9514
_cell_angle_gamma    65.9519

_space_group_name_H-M_alt    "P 1"
_space_group_IT_number       1

loop_
  _space_group_symop_operation_xyz
  'x, y, z'

loop_
  _atom_site_type_symbol
  _atom_site_label
  _atom_site_symmetry_multiplicity
  _atom_site_fract_x
  _atom_site_fract_y
  _atom_site_fract_z
  _atom_site_occupancy
  Ga  Ga1       1.0  0.90792  0.09205  0.09206  1.0000
  Ga  Ga2       1.0  0.59209  0.40793  0.40795  1.0000
  Ga  Ga3       1.0  0.09209  0.90795  0.90792  1.0000
  Ga  Ga4       1.0  0.40792  0.59206  0.59206  1.0000
  H   H1        1.0  0.68245  0.99442  0.35449  1.0000
  H   H2        1.0  0.96861  0.35440  0.99450  1.0000
  H   H3        1.0  0.81754  0.14550  0.50559  1.0000
  H   H4        1.0  0.53139  0.50550  0.14560  1.0000
  H   H5        1.0  0.31755  0.00560  0.64550  1.0000
  H   H6        1.0  0.03139  0.64559  0.00551  1.0000
  H   H7        1.0  0.18244  0.85448  0.49442  1.0000
  H   H8        1.0  0.46862  0.49451  0.85441  1.0000
  H   H9        1.0  0.10919  0.17447  0.82575  1.0000
  H   H10       1.0  0.89082  0.82553  0.17424  1.0000
  H   H11       1.0  0.39083  0.67424  0.32553  1.0000
  H   H12       1.0  0.60920  0.32576  0.67447  1.0000
  H   H13       1.0  0.44211  0.12256  0.25356  1.0000
  H   H14       1.0  0.18127  0.25394  0.12295  1.0000
  H   H15       1.0  0.05789  0.24642  0.37746  1.0000
  H   H16       1.0  0.31873  0.37707  0.24602  1.0000
  H   H17       1.0  0.55789  0.87747  0.74642  1.0000
  H   H18       1.0  0.81872  0.74603  0.87707  1.0000
  H   H19       1.0  0.94211  0.75355  0.62255  1.0000
  H   H20       1.0  0.68127  0.62295  0.75396  1.0000
  C   C1        1.0  0.53300  0.18973  0.21630  1.0000
  C   C2        1.0  0.06052  0.21663  0.19007  1.0000
  C   C3        1.0  0.96700  0.28368  0.31028  1.0000
  C   C4        1.0  0.43948  0.30994  0.28334  1.0000
  C   C5        1.0  0.46701  0.81030  0.78369  1.0000
  C   C6        1.0  0.93948  0.78334  0.80993  1.0000
  C   C7        1.0  0.03299  0.71632  0.68973  1.0000
  C   C8        1.0  0.56053  0.69007  0.71664  1.0000
  C   C9        1.0  0.57850  0.26926  0.04527  1.0000
  C   C10       1.0  0.10641  0.04561  0.26964  1.0000
  C   C11       1.0  0.92150  0.45471  0.23074  1.0000
  C   C12       1.0  0.39358  0.23036  0.45437  1.0000
  C   C13       1.0  0.42150  0.73076  0.95471  1.0000
  C   C14       1.0  0.89357  0.95437  0.73037  1.0000
  C   C15       1.0  0.07849  0.54528  0.76927  1.0000
  C   C16       1.0  0.60641  0.76965  0.54562  1.0000
  O   O1        1.0  0.68938  0.09719  0.26166  1.0000
  O   O2        1.0  0.95136  0.26192  0.09745  1.0000
  O   O3        1.0  0.81062  0.23833  0.40281  1.0000
  O   O4        1.0  0.54865  0.40256  0.23807  1.0000
  O   O5        1.0  0.31063  0.90281  0.73833  1.0000
  O   O6        1.0  0.04863  0.73808  0.90256  1.0000
  O   O7        1.0  0.18938  0.76165  0.59719  1.0000
  O   O8        1.0  0.45135  0.59746  0.76193  1.0000
  O   O9        1.0  0.73841  0.24199  0.97194  1.0000
  O   O10       1.0  0.04721  0.97215  0.24227  1.0000
  O   O11       1.0  0.76161  0.52805  0.25800  1.0000
  O   O12       1.0  0.45276  0.25775  0.52783  1.0000
  O   O13       1.0  0.26160  0.75802  0.02804  1.0000
  O   O14       1.0  0.95277  0.02784  0.75773  1.0000
  O   O15       1.0  0.23840  0.47193  0.74202  1.0000
  O   O16       1.0  0.54723  0.74225  0.47217  1.0000
  O   O17       1.0  0.45377  0.36018  0.98819  1.0000
  O   O18       1.0  0.19714  0.98861  0.36071  1.0000
  O   O19       1.0  0.04623  0.51180  0.13981  1.0000
  O   O20       1.0  0.30285  0.13931  0.51136  1.0000
  O   O21       1.0  0.54623  0.63984  0.01180  1.0000
  O   O22       1.0  0.80285  0.01137  0.63930  1.0000
  O   O23       1.0  0.95377  0.48818  0.86019  1.0000
  O   O24       1.0  0.69715  0.86070  0.48862  1.0000
  O   O25       1.0  0.10511  0.08337  0.91679  1.0000
  O   O26       1.0  0.89489  0.91664  0.08320  1.0000
  O   O27       1.0  0.39489  0.58320  0.41664  1.0000
  O   O28       1.0  0.60510  0.41681  0.58337  1.0000
