data_image0
_chemical_formula_structural       CsNi2H40C38I3N4O8
_chemical_formula_sum              "Cs1 Ni2 H40 C38 I3 N4 O8"
_cell_length_a       9.62062
_cell_length_b       9.85429
_cell_length_c       11.2076
_cell_angle_alpha    101.413
_cell_angle_beta     91.0257
_cell_angle_gamma    101.39

_space_group_name_H-M_alt    "P 1"
_space_group_IT_number       1

loop_
  _space_group_symop_operation_xyz
  'x, y, z'

loop_
  _atom_site_type_symbol
  _atom_site_label
  _atom_site_symmetry_multiplicity
  _atom_site_fract_x
  _atom_site_fract_y
  _atom_site_fract_z
  _atom_site_occupancy
  Cs  Cs1       1.0  0.00000  0.50000  0.50000  1.0000
  Ni  Ni1       1.0  0.36396  0.39257  0.37935  1.0000
  Ni  Ni2       1.0  0.63604  0.60743  0.62065  1.0000
  H   H1        1.0  0.19322  0.92847  0.24130  1.0000
  H   H2        1.0  0.80678  0.07153  0.75870  1.0000
  H   H3        1.0  0.28830  0.85453  0.04085  1.0000
  H   H4        1.0  0.71170  0.14547  0.95915  1.0000
  H   H5        1.0  0.37938  0.62973  0.99549  1.0000
  H   H6        1.0  0.62062  0.37027  0.00451  1.0000
  H   H7        1.0  0.39261  0.41005  0.04334  1.0000
  H   H8        1.0  0.60738  0.58994  0.95666  1.0000
  H   H9        1.0  0.40377  0.20653  0.05681  1.0000
  H   H10       1.0  0.59623  0.79347  0.94319  1.0000
  H   H11       1.0  0.32546  0.14570  0.18334  1.0000
  H   H12       1.0  0.67455  0.85430  0.81666  1.0000
  H   H13       1.0  0.54390  0.07540  0.18310  1.0000
  H   H14       1.0  0.45611  0.92461  0.81690  1.0000
  H   H15       1.0  0.64089  0.22903  0.14081  1.0000
  H   H16       1.0  0.35912  0.77099  0.85919  1.0000
  H   H17       1.0  0.67316  0.20690  0.36826  1.0000
  H   H18       1.0  0.32684  0.79311  0.63174  1.0000
  H   H19       1.0  0.65660  0.37117  0.33572  1.0000
  H   H20       1.0  0.34341  0.62884  0.66429  1.0000
  H   H21       1.0  0.55286  0.14012  0.50327  1.0000
  H   H22       1.0  0.44714  0.85988  0.49673  1.0000
  H   H23       1.0  0.45238  0.05247  0.66803  1.0000
  H   H24       1.0  0.54761  0.94753  0.33197  1.0000
  H   H25       1.0  0.30295  0.07602  0.84874  1.0000
  H   H26       1.0  0.69704  0.92397  0.15126  1.0000
  H   H27       1.0  0.16093  0.26134  0.88313  1.0000
  H   H28       1.0  0.83906  0.73866  0.11687  1.0000
  H   H29       1.0  0.07771  0.91170  0.53799  1.0000
  H   H30       1.0  0.92228  0.08829  0.46201  1.0000
  H   H31       1.0  0.02421  0.88916  0.37893  1.0000
  H   H32       1.0  0.97579  0.11084  0.62107  1.0000
  H   H33       1.0  0.19057  0.00186  0.44044  1.0000
  H   H34       1.0  0.80943  0.99814  0.55956  1.0000
  H   H35       1.0  0.02191  0.55884  0.84104  1.0000
  H   H36       1.0  0.97809  0.44116  0.15895  1.0000
  H   H37       1.0  0.14785  0.49862  0.92682  1.0000
  H   H38       1.0  0.85215  0.50138  0.07318  1.0000
  H   H39       1.0  0.99187  0.37620  0.85285  1.0000
  H   H40       1.0  0.00813  0.62381  0.14715  1.0000
  C   C1        1.0  0.28739  0.62281  0.28982  1.0000
  C   C2        1.0  0.71261  0.37719  0.71018  1.0000
  C   C3        1.0  0.23418  0.75145  0.31201  1.0000
  C   C4        1.0  0.76582  0.24855  0.68799  1.0000
  C   C5        1.0  0.23666  0.83272  0.22380  1.0000
  C   C6        1.0  0.76333  0.16728  0.77620  1.0000
  C   C7        1.0  0.29057  0.79026  0.10925  1.0000
  C   C8        1.0  0.70942  0.20974  0.89074  1.0000
  C   C9        1.0  0.34022  0.66617  0.08441  1.0000
  C   C10       1.0  0.65978  0.33382  0.91560  1.0000
  C   C11       1.0  0.33944  0.58151  0.17307  1.0000
  C   C12       1.0  0.66056  0.41849  0.82693  1.0000
  C   C13       1.0  0.37943  0.44772  0.14064  1.0000
  C   C14       1.0  0.62057  0.55227  0.85936  1.0000
  C   C15       1.0  0.41412  0.22063  0.15664  1.0000
  C   C16       1.0  0.58588  0.77937  0.84336  1.0000
  C   C17       1.0  0.55537  0.19071  0.19702  1.0000
  C   C18       1.0  0.44464  0.80930  0.80298  1.0000
  C   C19       1.0  0.59986  0.26160  0.32952  1.0000
  C   C20       1.0  0.40014  0.73840  0.67049  1.0000
  C   C21       1.0  0.47290  0.20430  0.49754  1.0000
  C   C22       1.0  0.52710  0.79570  0.50246  1.0000
  C   C23       1.0  0.38088  0.21608  0.59579  1.0000
  C   C24       1.0  0.61912  0.78393  0.40421  1.0000
  C   C25       1.0  0.38403  0.12951  0.68247  1.0000
  C   C26       1.0  0.61597  0.87048  0.31754  1.0000
  C   C27       1.0  0.30480  0.14477  0.78351  1.0000
  C   C28       1.0  0.69519  0.85523  0.21649  1.0000
  C   C29       1.0  0.22381  0.25086  0.80321  1.0000
  C   C30       1.0  0.77618  0.74914  0.19679  1.0000
  C   C31       1.0  0.22139  0.33940  0.72128  1.0000
  C   C32       1.0  0.77861  0.66061  0.27872  1.0000
  C   C33       1.0  0.29778  0.32203  0.61197  1.0000
  C   C34       1.0  0.70222  0.67797  0.38804  1.0000
  C   C35       1.0  0.11435  0.90428  0.44542  1.0000
  C   C36       1.0  0.88565  0.09572  0.55458  1.0000
  C   C37       1.0  0.07281  0.46990  0.84633  1.0000
  C   C38       1.0  0.92719  0.53011  0.15367  1.0000
  I   I1        1.0  0.97882  0.82226  0.75587  1.0000
  I   I2        1.0  0.02119  0.17774  0.24414  1.0000
  I   I3        1.0  0.00000  0.99999  0.00000  1.0000
  N   N1        1.0  0.39475  0.36278  0.21344  1.0000
  N   N2        1.0  0.60525  0.63721  0.78656  1.0000
  N   N3        1.0  0.47803  0.26848  0.40613  1.0000
  N   N4        1.0  0.52198  0.73152  0.59388  1.0000
  O   O1        1.0  0.28054  0.54884  0.37544  1.0000
  O   O2        1.0  0.71946  0.45116  0.62456  1.0000
  O   O3        1.0  0.28971  0.40508  0.53473  1.0000
  O   O4        1.0  0.71029  0.59493  0.46528  1.0000
  O   O5        1.0  0.18026  0.78377  0.42420  1.0000
  O   O6        1.0  0.81974  0.21623  0.57580  1.0000
  O   O7        1.0  0.14628  0.44596  0.73595  1.0000
  O   O8        1.0  0.85372  0.55404  0.26405  1.0000
