data_image0
_chemical_formula_structural       Zn4H24C28N16O8
_chemical_formula_sum              "Zn4 H24 C28 N16 O8"
_cell_length_a       9.59355
_cell_length_b       11.757
_cell_length_c       11.759
_cell_angle_alpha    80.4065
_cell_angle_beta     65.9134
_cell_angle_gamma    65.9065

_space_group_name_H-M_alt    "P 1"
_space_group_IT_number       1

loop_
  _space_group_symop_operation_xyz
  'x, y, z'

loop_
  _atom_site_type_symbol
  _atom_site_label
  _atom_site_symmetry_multiplicity
  _atom_site_fract_x
  _atom_site_fract_y
  _atom_site_fract_z
  _atom_site_occupancy
  Zn  Zn1       1.0  0.13556  0.47910  0.16795  1.0000
  Zn  Zn2       1.0  0.38528  0.83208  0.47924  1.0000
  Zn  Zn3       1.0  0.78265  0.52101  0.83211  1.0000
  Zn  Zn4       1.0  0.69635  0.16819  0.52085  1.0000
  H   H1        1.0  0.06058  0.42894  0.94552  1.0000
  H   H2        1.0  0.51091  0.05454  0.42853  1.0000
  H   H3        1.0  0.43483  0.57121  0.05461  1.0000
  H   H4        1.0  0.99380  0.94568  0.57151  1.0000
  H   H5        1.0  0.33515  0.82505  0.24172  1.0000
  H   H6        1.0  0.83959  0.75862  0.82495  1.0000
  H   H7        1.0  0.40178  0.17513  0.75858  1.0000
  H   H8        1.0  0.42320  0.24140  0.17501  1.0000
  H   H9        1.0  0.73042  0.65867  0.36051  1.0000
  H   H10       1.0  0.61082  0.63973  0.65868  1.0000
  H   H11       1.0  0.74953  0.34138  0.63972  1.0000
  H   H12       1.0  0.90910  0.36062  0.34154  1.0000
  H   H13       1.0  0.99892  0.68962  0.52670  1.0000
  H   H14       1.0  0.31182  0.47284  0.68938  1.0000
  H   H15       1.0  0.21525  0.31019  0.47313  1.0000
  H   H16       1.0  0.47450  0.52674  0.31010  1.0000
  H   H17       1.0  0.98572  0.80831  0.41144  1.0000
  H   H18       1.0  0.20636  0.58806  0.80805  1.0000
  H   H19       1.0  0.20525  0.19162  0.58848  1.0000
  H   H20       1.0  0.60303  0.41141  0.19150  1.0000
  H   H21       1.0  0.18184  0.70428  0.41055  1.0000
  H   H22       1.0  0.11410  0.58893  0.70418  1.0000
  H   H23       1.0  0.29683  0.29541  0.58917  1.0000
  H   H24       1.0  0.40754  0.41081  0.29521  1.0000
  C   C1        1.0  0.94963  0.49639  0.00971  1.0000
  C   C2        1.0  0.55421  0.99041  0.49608  1.0000
  C   C3        1.0  0.45568  0.50365  0.99049  1.0000
  C   C4        1.0  0.04054  0.00982  0.50399  1.0000
  C   C5        1.0  0.69962  0.62877  0.08824  1.0000
  C   C6        1.0  0.67167  0.91201  0.62855  1.0000
  C   C7        1.0  0.41660  0.37127  0.91203  1.0000
  C   C8        1.0  0.21206  0.08816  0.37146  1.0000
  C   C9        1.0  0.46337  0.76155  0.21893  1.0000
  C   C10       1.0  0.77493  0.78139  0.76143  1.0000
  C   C11       1.0  0.44377  0.23855  0.78136  1.0000
  C   C12       1.0  0.31774  0.21870  0.23857  1.0000
  C   C13       1.0  0.68425  0.67183  0.28661  1.0000
  C   C14       1.0  0.64382  0.71365  0.67182  1.0000
  C   C15       1.0  0.64269  0.32815  0.71366  1.0000
  C   C16       1.0  0.02914  0.28660  0.32833  1.0000
  C   C17       1.0  0.77938  0.61232  0.17207  1.0000
  C   C18       1.0  0.60835  0.82816  0.61221  1.0000
  C   C19       1.0  0.56386  0.38755  0.82825  1.0000
  C   C20       1.0  0.04851  0.17204  0.38781  1.0000
  C   C21       1.0  0.05915  0.62597  0.34533  1.0000
  C   C22       1.0  0.31505  0.65432  0.62583  1.0000
  C   C23       1.0  0.03048  0.37410  0.65448  1.0000
  C   C24       1.0  0.59518  0.34526  0.37391  1.0000
  C   C25       1.0  0.05728  0.71136  0.42882  1.0000
  C   C26       1.0  0.23162  0.57072  0.71114  1.0000
  C   C27       1.0  0.19746  0.28850  0.57099  1.0000
  C   C28       1.0  0.51388  0.42887  0.28835  1.0000
  N   N1        1.0  0.94031  0.52851  0.11818  1.0000
  N   N2        1.0  0.53131  0.88195  0.52836  1.0000
  N   N3        1.0  0.58709  0.47140  0.88206  1.0000
  N   N4        1.0  0.94141  0.11828  0.47171  1.0000
  N   N5        1.0  0.80893  0.55348  0.98695  1.0000
  N   N6        1.0  0.63775  0.01324  0.55317  1.0000
  N   N7        1.0  0.34924  0.44663  0.01325  1.0000
  N   N8        1.0  0.20403  0.98697  0.44688  1.0000
  N   N9        1.0  0.54232  0.70398  0.10934  1.0000
  N   N10       1.0  0.75364  0.89096  0.70381  1.0000
  N   N11       1.0  0.35556  0.29612  0.89096  1.0000
  N   N12       1.0  0.34834  0.10913  0.29620  1.0000
  N   N13       1.0  0.52570  0.74741  0.30771  1.0000
  N   N14       1.0  0.72676  0.69256  0.74739  1.0000
  N   N15       1.0  0.58073  0.25268  0.69253  1.0000
  N   N16       1.0  0.16663  0.30760  0.25272  1.0000
  O   O1        1.0  0.17635  0.60338  0.23527  1.0000
  O   O2        1.0  0.22036  0.76428  0.60299  1.0000
  O   O3        1.0  0.01521  0.39687  0.76443  1.0000
  O   O4        1.0  0.58802  0.23520  0.39650  1.0000
  O   O5        1.0  0.95189  0.57907  0.38098  1.0000
  O   O6        1.0  0.46917  0.61893  0.57933  1.0000
  O   O7        1.0  0.91187  0.42089  0.61896  1.0000
  O   O8        1.0  0.66679  0.38081  0.42091  1.0000
