data_image0
_chemical_formula_structural       Cd2H28C24N6O12
_chemical_formula_sum              "Cd2 H28 C24 N6 O12"
_cell_length_a       8.83536
_cell_length_b       10.1996
_cell_length_c       9.94603
_cell_angle_alpha    99.6794
_cell_angle_beta     114.879
_cell_angle_gamma    107.455

_space_group_name_H-M_alt    "P 1"
_space_group_IT_number       1

loop_
  _space_group_symop_operation_xyz
  'x, y, z'

loop_
  _atom_site_type_symbol
  _atom_site_label
  _atom_site_symmetry_multiplicity
  _atom_site_fract_x
  _atom_site_fract_y
  _atom_site_fract_z
  _atom_site_occupancy
  Cd  Cd1       1.0  0.68228  0.90978  0.25259  1.0000
  Cd  Cd2       1.0  0.31772  0.09023  0.74741  1.0000
  H   H1        1.0  0.46849  0.79968  0.90471  1.0000
  H   H2        1.0  0.53151  0.20032  0.09529  1.0000
  H   H3        1.0  0.53083  0.68565  0.98008  1.0000
  H   H4        1.0  0.46917  0.31436  0.01993  1.0000
  H   H5        1.0  0.84356  0.88282  0.54721  1.0000
  H   H6        1.0  0.15643  0.11717  0.45278  1.0000
  H   H7        1.0  0.88812  0.04606  0.58498  1.0000
  H   H8        1.0  0.11187  0.95393  0.41502  1.0000
  H   H9        1.0  0.39520  0.07960  0.24034  1.0000
  H   H10       1.0  0.60481  0.92041  0.75967  1.0000
  H   H11       1.0  0.94979  0.66545  0.96979  1.0000
  H   H12       1.0  0.05022  0.33456  0.03021  1.0000
  H   H13       1.0  0.04865  0.05053  0.17420  1.0000
  H   H14       1.0  0.95136  0.94948  0.82580  1.0000
  H   H15       1.0  0.86830  0.88437  0.02912  1.0000
  H   H16       1.0  0.13171  0.11564  0.97088  1.0000
  H   H17       1.0  0.19069  0.77823  0.37499  1.0000
  H   H18       1.0  0.80931  0.22177  0.62500  1.0000
  H   H19       1.0  0.21413  0.36672  0.39479  1.0000
  H   H20       1.0  0.78587  0.63328  0.60522  1.0000
  H   H21       1.0  0.70599  0.41148  0.25556  1.0000
  H   H22       1.0  0.29401  0.58852  0.74444  1.0000
  H   H23       1.0  0.50526  0.63884  0.56765  1.0000
  H   H24       1.0  0.49474  0.36116  0.43235  1.0000
  H   H25       1.0  0.47763  0.76730  0.46835  1.0000
  H   H26       1.0  0.52237  0.23270  0.53165  1.0000
  H   H27       1.0  0.46705  0.60003  0.37233  1.0000
  H   H28       1.0  0.53295  0.39996  0.62768  1.0000
  C   C1        1.0  0.31595  0.96279  0.18092  1.0000
  C   C2        1.0  0.68407  0.03722  0.81909  1.0000
  C   C3        1.0  0.08866  0.74965  0.04121  1.0000
  C   C4        1.0  0.91135  0.25036  0.95879  1.0000
  C   C5        1.0  0.00364  0.96654  0.06420  1.0000
  C   C6        1.0  0.99637  0.03347  0.93580  1.0000
  C   C7        1.0  0.82395  0.69006  0.27300  1.0000
  C   C8        1.0  0.17605  0.30993  0.72699  1.0000
  C   C9        1.0  0.93507  0.60211  0.30701  1.0000
  C   C10       1.0  0.06492  0.39789  0.69299  1.0000
  C   C11       1.0  0.12297  0.66363  0.35881  1.0000
  C   C12       1.0  0.87703  0.33637  0.64119  1.0000
  C   C13       1.0  0.22690  0.58135  0.39233  1.0000
  C   C14       1.0  0.77310  0.41864  0.60767  1.0000
  C   C15       1.0  0.13716  0.43385  0.36942  1.0000
  C   C16       1.0  0.86284  0.56615  0.63058  1.0000
  C   C17       1.0  0.94901  0.37033  0.31676  1.0000
  C   C18       1.0  0.05098  0.62967  0.68325  1.0000
  C   C19       1.0  0.84972  0.45596  0.28857  1.0000
  C   C20       1.0  0.15027  0.54404  0.71144  1.0000
  C   C21       1.0  0.85460  0.21283  0.29091  1.0000
  C   C22       1.0  0.14540  0.78717  0.70908  1.0000
  C   C23       1.0  0.42958  0.65066  0.45321  1.0000
  C   C24       1.0  0.57042  0.34933  0.54679  1.0000
  N   N1        1.0  0.38299  0.86314  0.17772  1.0000
  N   N2        1.0  0.61702  0.13686  0.82228  1.0000
  N   N3        1.0  0.23936  0.72725  0.08912  1.0000
  N   N4        1.0  0.76066  0.27276  0.91088  1.0000
  N   N5        1.0  0.12992  0.89576  0.09553  1.0000
  N   N6        1.0  0.87010  0.10425  0.90448  1.0000
  O   O1        1.0  0.65572  0.63414  0.22980  1.0000
  O   O2        1.0  0.34427  0.36584  0.77016  1.0000
  O   O3        1.0  0.90757  0.82470  0.28874  1.0000
  O   O4        1.0  0.09242  0.17529  0.71126  1.0000
  O   O5        1.0  0.67904  0.15106  0.22034  1.0000
  O   O6        1.0  0.32095  0.84895  0.77966  1.0000
  O   O7        1.0  0.94883  0.13988  0.33793  1.0000
  O   O8        1.0  0.05115  0.86011  0.66206  1.0000
  O   O9        1.0  0.57672  0.78608  0.98142  1.0000
  O   O10       1.0  0.42328  0.21393  0.01858  1.0000
  O   O11       1.0  0.78100  0.94808  0.51981  1.0000
  O   O12       1.0  0.21899  0.05190  0.48018  1.0000
