data_image0
_chemical_formula_structural       Li2B2H28C32O14
_chemical_formula_sum              "Li2 B2 H28 C32 O14"
_cell_length_a       6.5639
_cell_length_b       9.01604
_cell_length_c       13.5632
_cell_angle_alpha    90.0004
_cell_angle_beta     94.3844
_cell_angle_gamma    89.9998

_space_group_name_H-M_alt    "P 1"
_space_group_IT_number       1

loop_
  _space_group_symop_operation_xyz
  'x, y, z'

loop_
  _atom_site_type_symbol
  _atom_site_label
  _atom_site_symmetry_multiplicity
  _atom_site_fract_x
  _atom_site_fract_y
  _atom_site_fract_z
  _atom_site_occupancy
  Li  Li1       1.0  0.99694  0.50706  0.58588  1.0000
  Li  Li2       1.0  0.00306  0.00705  0.41413  1.0000
  B   B1        1.0  0.24322  0.53586  0.40985  1.0000
  B   B2        1.0  0.75677  0.03586  0.59015  1.0000
  H   H1        1.0  0.46082  0.31744  0.55873  1.0000
  H   H2        1.0  0.53918  0.81744  0.44127  1.0000
  H   H3        1.0  0.60595  0.31772  0.72068  1.0000
  H   H4        1.0  0.39404  0.81772  0.27932  1.0000
  H   H5        1.0  0.69526  0.44527  0.88078  1.0000
  H   H6        1.0  0.30475  0.94528  0.11922  1.0000
  H   H7        1.0  0.60024  0.71116  0.90066  1.0000
  H   H8        1.0  0.39978  0.21116  0.09935  1.0000
  H   H9        1.0  0.41761  0.84688  0.75976  1.0000
  H   H10       1.0  0.58240  0.34688  0.24025  1.0000
  H   H11       1.0  0.33912  0.72037  0.59969  1.0000
  H   H12       1.0  0.66088  0.22036  0.40031  1.0000
  H   H13       1.0  0.83092  0.54274  0.27884  1.0000
  H   H14       1.0  0.16908  0.04275  0.72116  1.0000
  H   H15       1.0  0.78296  0.74563  0.13941  1.0000
  H   H16       1.0  0.21704  0.24562  0.86059  1.0000
  H   H17       1.0  0.88383  0.81261  0.97223  1.0000
  H   H18       1.0  0.11620  0.31260  0.02777  1.0000
  H   H19       1.0  0.19804  0.70615  0.90928  1.0000
  H   H20       1.0  0.80198  0.20615  0.09072  1.0000
  H   H21       1.0  0.42316  0.54230  0.01828  1.0000
  H   H22       1.0  0.57686  0.04230  0.98173  1.0000
  H   H23       1.0  0.32570  0.48094  0.18821  1.0000
  H   H24       1.0  0.67431  0.98094  0.81179  1.0000
  H   H25       1.0  0.93030  0.77671  0.67010  1.0000
  H   H26       1.0  0.06969  0.27671  0.32991  1.0000
  H   H27       1.0  0.87024  0.63791  0.73006  1.0000
  H   H28       1.0  0.12976  0.13790  0.26994  1.0000
  C   C1        1.0  0.57763  0.49665  0.47459  1.0000
  C   C2        1.0  0.42236  0.99665  0.52541  1.0000
  C   C3        1.0  0.43442  0.43755  0.54999  1.0000
  C   C4        1.0  0.56557  0.93754  0.45000  1.0000
  C   C5        1.0  0.47395  0.51231  0.64921  1.0000
  C   C6        1.0  0.52605  0.01230  0.35079  1.0000
  C   C7        1.0  0.56959  0.43464  0.72911  1.0000
  C   C8        1.0  0.43041  0.93464  0.27088  1.0000
  C   C9        1.0  0.61720  0.50607  0.81939  1.0000
  C   C10       1.0  0.38280  0.00607  0.18061  1.0000
  C   C11       1.0  0.56401  0.65514  0.83032  1.0000
  C   C12       1.0  0.43599  0.15514  0.16968  1.0000
  C   C13       1.0  0.46279  0.73150  0.75135  1.0000
  C   C14       1.0  0.53722  0.23150  0.24865  1.0000
  C   C15       1.0  0.41957  0.66087  0.66091  1.0000
  C   C16       1.0  0.58043  0.16086  0.33909  1.0000
  C   C17       1.0  0.02497  0.71675  0.34018  1.0000
  C   C18       1.0  0.97501  0.21675  0.65982  1.0000
  C   C19       1.0  0.99277  0.57530  0.27812  1.0000
  C   C20       1.0  0.00722  0.07530  0.72187  1.0000
  C   C21       1.0  0.04753  0.60657  0.17342  1.0000
  C   C22       1.0  0.95247  0.10656  0.82658  1.0000
  C   C23       1.0  0.92196  0.69958  0.11231  1.0000
  C   C24       1.0  0.07805  0.19958  0.88768  1.0000
  C   C25       1.0  0.97832  0.73668  0.01837  1.0000
  C   C26       1.0  0.02170  0.23668  0.98163  1.0000
  C   C27       1.0  0.15743  0.67947  0.98367  1.0000
  C   C28       1.0  0.84259  0.17947  0.01633  1.0000
  C   C29       1.0  0.28290  0.58732  0.04467  1.0000
  C   C30       1.0  0.71711  0.08731  0.95533  1.0000
  C   C31       1.0  0.22891  0.55198  0.13960  1.0000
  C   C32       1.0  0.77109  0.05198  0.86040  1.0000
  O   O1        1.0  0.95332  0.66844  0.67701  1.0000
  O   O2        1.0  0.04668  0.16843  0.32300  1.0000
  O   O3        1.0  0.76493  0.50329  0.48520  1.0000
  O   O4        1.0  0.23506  0.00329  0.51480  1.0000
  O   O5        1.0  0.46861  0.54210  0.39385  1.0000
  O   O6        1.0  0.53137  0.04209  0.60615  1.0000
  O   O7        1.0  0.23368  0.46394  0.50513  1.0000
  O   O8        1.0  0.76631  0.96394  0.49487  1.0000
  O   O9        1.0  0.94032  0.83663  0.32395  1.0000
  O   O10       1.0  0.05966  0.33663  0.67605  1.0000
  O   O11       1.0  0.16720  0.69297  0.41297  1.0000
  O   O12       1.0  0.83278  0.19297  0.58704  1.0000
  O   O13       1.0  0.12026  0.46777  0.32847  1.0000
  O   O14       1.0  0.87973  0.96777  0.67153  1.0000
