data_image0
_chemical_formula_structural       Gd2H22C10O16
_chemical_formula_sum              "Gd2 H22 C10 O16"
_cell_length_a       6.57827
_cell_length_b       7.79126
_cell_length_c       9.9228
_cell_angle_alpha    109.496
_cell_angle_beta     89.9992
_cell_angle_gamma    89.9994

_space_group_name_H-M_alt    "P 1"
_space_group_IT_number       1

loop_
  _space_group_symop_operation_xyz
  'x, y, z'

loop_
  _atom_site_type_symbol
  _atom_site_label
  _atom_site_symmetry_multiplicity
  _atom_site_fract_x
  _atom_site_fract_y
  _atom_site_fract_z
  _atom_site_occupancy
  Gd  Gd1       1.0  0.75001  0.50506  0.74885  1.0000
  Gd  Gd2       1.0  0.24999  0.49494  0.25115  1.0000
  H   H1        1.0  0.87297  0.70436  0.05409  1.0000
  H   H2        1.0  0.37298  0.29564  0.94591  1.0000
  H   H3        1.0  0.12703  0.29564  0.94591  1.0000
  H   H4        1.0  0.62702  0.70436  0.05409  1.0000
  H   H5        1.0  0.62698  0.71263  0.55297  1.0000
  H   H6        1.0  0.12698  0.28736  0.44704  1.0000
  H   H7        1.0  0.37302  0.28737  0.44704  1.0000
  H   H8        1.0  0.87302  0.71264  0.55297  1.0000
  H   H9        1.0  0.75000  0.11345  0.03856  1.0000
  H   H10       1.0  0.25000  0.88655  0.96144  1.0000
  H   H11       1.0  0.61352  0.97796  0.88518  1.0000
  H   H12       1.0  0.11350  0.02204  0.11482  1.0000
  H   H13       1.0  0.38649  0.02204  0.11482  1.0000
  H   H14       1.0  0.88650  0.97796  0.88518  1.0000
  H   H15       1.0  0.75000  0.09770  0.25992  1.0000
  H   H16       1.0  0.25000  0.90230  0.74008  1.0000
  H   H17       1.0  0.88685  0.96414  0.34395  1.0000
  H   H18       1.0  0.38685  0.03586  0.65605  1.0000
  H   H19       1.0  0.11315  0.03586  0.65605  1.0000
  H   H20       1.0  0.61315  0.96414  0.34395  1.0000
  H   H21       1.0  0.25002  0.39031  0.72156  1.0000
  H   H22       1.0  0.74998  0.60969  0.27844  1.0000
  C   C1        1.0  0.75001  0.22028  0.86977  1.0000
  C   C2        1.0  0.25000  0.77972  0.13023  1.0000
  C   C3        1.0  0.75001  0.06073  0.92106  1.0000
  C   C4        1.0  0.25000  0.93927  0.07894  1.0000
  C   C5        1.0  0.75000  0.20858  0.48416  1.0000
  C   C6        1.0  0.25000  0.79142  0.51584  1.0000
  C   C7        1.0  0.74999  0.04661  0.35069  1.0000
  C   C8        1.0  0.25000  0.95339  0.64931  1.0000
  C   C9        1.0  0.24999  0.54119  0.75790  1.0000
  C   C10       1.0  0.75001  0.45881  0.24210  1.0000
  O   O1        1.0  0.91770  0.29053  0.84708  1.0000
  O   O2        1.0  0.41770  0.70947  0.15293  1.0000
  O   O3        1.0  0.08230  0.70947  0.15292  1.0000
  O   O4        1.0  0.58230  0.29052  0.84707  1.0000
  O   O5        1.0  0.91768  0.28014  0.54287  1.0000
  O   O6        1.0  0.41768  0.71985  0.45713  1.0000
  O   O7        1.0  0.08232  0.71986  0.45713  1.0000
  O   O8        1.0  0.58232  0.28015  0.54287  1.0000
  O   O9        1.0  0.07998  0.62244  0.77757  1.0000
  O   O10       1.0  0.57995  0.37754  0.22242  1.0000
  O   O11       1.0  0.92002  0.37756  0.22243  1.0000
  O   O12       1.0  0.42004  0.62246  0.77759  1.0000
  O   O13       1.0  0.74999  0.68780  0.99184  1.0000
  O   O14       1.0  0.25001  0.31220  0.00816  1.0000
  O   O15       1.0  0.75000  0.69259  0.60500  1.0000
  O   O16       1.0  0.25000  0.30741  0.39501  1.0000
