data_image0
_chemical_formula_structural       Cd2H28C28N8Cl4
_chemical_formula_sum              "Cd2 H28 C28 N8 Cl4"
_cell_length_a       8.57714
_cell_length_b       8.96744
_cell_length_c       10.8222
_cell_angle_alpha    75.0475
_cell_angle_beta     75.1991
_cell_angle_gamma    88.0991

_space_group_name_H-M_alt    "P 1"
_space_group_IT_number       1

loop_
  _space_group_symop_operation_xyz
  'x, y, z'

loop_
  _atom_site_type_symbol
  _atom_site_label
  _atom_site_symmetry_multiplicity
  _atom_site_fract_x
  _atom_site_fract_y
  _atom_site_fract_z
  _atom_site_occupancy
  Cd  Cd1       1.0  0.03362  0.02219  0.17413  1.0000
  Cd  Cd2       1.0  0.96638  0.97781  0.82587  1.0000
  H   H1        1.0  0.79935  0.85807  0.47649  1.0000
  H   H2        1.0  0.20065  0.14193  0.52351  1.0000
  H   H3        1.0  0.69939  0.55098  0.57277  1.0000
  H   H4        1.0  0.30061  0.44902  0.42723  1.0000
  H   H5        1.0  0.85656  0.42095  0.36919  1.0000
  H   H6        1.0  0.14344  0.57905  0.63081  1.0000
  H   H7        1.0  0.06605  0.74635  0.08239  1.0000
  H   H8        1.0  0.93395  0.25365  0.91762  1.0000
  H   H9        1.0  0.98689  0.55519  0.11896  1.0000
  H   H10       1.0  0.01311  0.44481  0.88103  1.0000
  H   H11       1.0  0.30480  0.76961  0.20380  1.0000
  H   H12       1.0  0.69520  0.23039  0.79620  1.0000
  H   H13       1.0  0.56885  0.65911  0.22137  1.0000
  H   H14       1.0  0.43115  0.34089  0.77863  1.0000
  H   H15       1.0  0.63196  0.39602  0.18886  1.0000
  H   H16       1.0  0.36804  0.60398  0.81114  1.0000
  H   H17       1.0  0.16255  0.35607  0.12356  1.0000
  H   H18       1.0  0.83745  0.64393  0.87644  1.0000
  H   H19       1.0  0.38451  0.18180  0.05453  1.0000
  H   H20       1.0  0.61549  0.81820  0.94548  1.0000
  H   H21       1.0  0.57183  0.19203  0.09363  1.0000
  H   H22       1.0  0.42817  0.80797  0.90637  1.0000
  H   H23       1.0  0.60841  0.03548  0.30575  1.0000
  H   H24       1.0  0.39159  0.96452  0.69425  1.0000
  H   H25       1.0  0.41667  0.81505  0.51520  1.0000
  H   H26       1.0  0.58333  0.18495  0.48480  1.0000
  H   H27       1.0  0.11918  0.84224  0.46209  1.0000
  H   H28       1.0  0.88082  0.15775  0.53791  1.0000
  C   C1        1.0  0.83147  0.76285  0.43085  1.0000
  C   C2        1.0  0.16852  0.23715  0.56915  1.0000
  C   C3        1.0  0.78074  0.60680  0.47851  1.0000
  C   C4        1.0  0.21926  0.39320  0.52149  1.0000
  C   C5        1.0  0.85821  0.53853  0.37866  1.0000
  C   C6        1.0  0.14179  0.46147  0.62134  1.0000
  C   C7        1.0  0.05234  0.63251  0.15355  1.0000
  C   C8        1.0  0.94766  0.36748  0.84644  1.0000
  C   C9        1.0  0.21474  0.56809  0.16498  1.0000
  C   C10       1.0  0.78526  0.43191  0.83502  1.0000
  C   C11       1.0  0.33031  0.65370  0.19153  1.0000
  C   C12       1.0  0.66969  0.34630  0.80847  1.0000
  C   C13       1.0  0.47930  0.59142  0.20131  1.0000
  C   C14       1.0  0.52070  0.40858  0.79869  1.0000
  C   C15       1.0  0.51473  0.44410  0.18322  1.0000
  C   C16       1.0  0.48527  0.55590  0.81678  1.0000
  C   C17       1.0  0.40139  0.35816  0.15488  1.0000
  C   C18       1.0  0.59861  0.64184  0.84513  1.0000
  C   C19       1.0  0.25205  0.42132  0.14611  1.0000
  C   C20       1.0  0.74795  0.57868  0.85389  1.0000
  C   C21       1.0  0.44118  0.20148  0.12940  1.0000
  C   C22       1.0  0.55882  0.79852  0.87060  1.0000
  C   C23       1.0  0.48180  0.00168  0.32839  1.0000
  C   C24       1.0  0.51820  0.99831  0.67162  1.0000
  C   C25       1.0  0.38320  0.89305  0.43225  1.0000
  C   C26       1.0  0.61679  0.10694  0.56775  1.0000
  C   C27       1.0  0.23071  0.90662  0.40625  1.0000
  C   C28       1.0  0.76929  0.09338  0.59376  1.0000
  N   N1        1.0  0.93375  0.78835  0.30960  1.0000
  N   N2        1.0  0.06625  0.21165  0.69040  1.0000
  N   N3        1.0  0.94809  0.65052  0.27875  1.0000
  N   N4        1.0  0.05192  0.34948  0.72125  1.0000
  N   N5        1.0  0.38954  0.07265  0.24735  1.0000
  N   N6        1.0  0.61046  0.92735  0.75265  1.0000
  N   N7        1.0  0.23459  0.01615  0.29334  1.0000
  N   N8        1.0  0.76541  0.98385  0.70666  1.0000
  Cl  Cl1       1.0  0.78479  0.95154  0.04836  1.0000
  Cl  Cl2       1.0  0.21521  0.04846  0.95164  1.0000
  Cl  Cl3       1.0  0.86323  0.23127  0.23054  1.0000
  Cl  Cl4       1.0  0.13677  0.76873  0.76946  1.0000
