data_image0
_chemical_formula_structural       Co2H28C28N8Cl4
_chemical_formula_sum              "Co2 H28 C28 N8 Cl4"
_cell_length_a       7.59729
_cell_length_b       8.90514
_cell_length_c       10.9698
_cell_angle_alpha    90
_cell_angle_beta     89.9999
_cell_angle_gamma    97.0687

_space_group_name_H-M_alt    "P 1"
_space_group_IT_number       1

loop_
  _space_group_symop_operation_xyz
  'x, y, z'

loop_
  _atom_site_type_symbol
  _atom_site_label
  _atom_site_symmetry_multiplicity
  _atom_site_fract_x
  _atom_site_fract_y
  _atom_site_fract_z
  _atom_site_occupancy
  Co  Co1       1.0  0.80946  0.19932  0.99426  1.0000
  Co  Co2       1.0  0.19054  0.80068  0.49426  1.0000
  H   H1        1.0  0.84219  0.86378  0.02652  1.0000
  H   H2        1.0  0.15781  0.13622  0.52652  1.0000
  H   H3        1.0  0.64774  0.63170  0.90124  1.0000
  H   H4        1.0  0.35226  0.36830  0.40124  1.0000
  H   H5        1.0  0.43938  0.78390  0.74535  1.0000
  H   H6        1.0  0.56062  0.21610  0.24535  1.0000
  H   H7        1.0  0.48726  0.18736  0.83210  1.0000
  H   H8        1.0  0.51273  0.81264  0.33210  1.0000
  H   H9        1.0  0.37524  0.04972  0.73221  1.0000
  H   H10       1.0  0.62477  0.95028  0.23221  1.0000
  H   H11       1.0  0.65319  0.93708  0.58919  1.0000
  H   H12       1.0  0.34681  0.06292  0.08919  1.0000
  H   H13       1.0  0.85485  0.03750  0.42244  1.0000
  H   H14       1.0  0.14516  0.96250  0.92244  1.0000
  H   H15       1.0  0.94652  0.31138  0.40264  1.0000
  H   H16       1.0  0.05349  0.68862  0.90264  1.0000
  H   H17       1.0  0.62830  0.39193  0.71627  1.0000
  H   H18       1.0  0.37170  0.60807  0.21627  1.0000
  H   H19       1.0  0.76870  0.60250  0.60683  1.0000
  H   H20       1.0  0.23130  0.39750  0.10683  1.0000
  H   H21       1.0  0.99026  0.56210  0.59038  1.0000
  H   H22       1.0  0.00974  0.43790  0.09039  1.0000
  H   H23       1.0  0.64449  0.46420  0.34585  1.0000
  H   H24       1.0  0.35551  0.53580  0.84585  1.0000
  H   H25       1.0  0.73768  0.64637  0.14826  1.0000
  H   H26       1.0  0.26232  0.35363  0.64826  1.0000
  H   H27       1.0  0.02525  0.84106  0.23189  1.0000
  H   H28       1.0  0.97474  0.15894  0.73189  1.0000
  C   C1        1.0  0.74428  0.86863  0.95539  1.0000
  C   C2        1.0  0.25572  0.13137  0.45540  1.0000
  C   C3        1.0  0.64470  0.75253  0.89023  1.0000
  C   C4        1.0  0.35530  0.24747  0.39023  1.0000
  C   C5        1.0  0.53873  0.82588  0.81235  1.0000
  C   C6        1.0  0.46127  0.17412  0.31235  1.0000
  C   C7        1.0  0.50629  0.09791  0.76642  1.0000
  C   C8        1.0  0.49371  0.90209  0.26642  1.0000
  C   C9        1.0  0.62688  0.15854  0.66347  1.0000
  C   C10       1.0  0.37312  0.84146  0.16347  1.0000
  C   C11       1.0  0.69102  0.05886  0.58054  1.0000
  C   C12       1.0  0.30898  0.94114  0.08054  1.0000
  C   C13       1.0  0.80512  0.11483  0.48729  1.0000
  C   C14       1.0  0.19488  0.88517  0.98729  1.0000
  C   C15       1.0  0.85702  0.27000  0.47631  1.0000
  C   C16       1.0  0.14298  0.73000  0.97631  1.0000
  C   C17       1.0  0.79295  0.37098  0.55808  1.0000
  C   C18       1.0  0.20705  0.62902  0.05808  1.0000
  C   C19       1.0  0.67711  0.31425  0.65095  1.0000
  C   C20       1.0  0.32289  0.68575  0.15095  1.0000
  C   C21       1.0  0.85540  0.53810  0.55256  1.0000
  C   C22       1.0  0.14460  0.46190  0.05256  1.0000
  C   C23       1.0  0.75032  0.55623  0.33511  1.0000
  C   C24       1.0  0.24968  0.44376  0.83511  1.0000
  C   C25       1.0  0.79992  0.65097  0.23720  1.0000
  C   C26       1.0  0.20008  0.34903  0.73720  1.0000
  C   C27       1.0  0.94629  0.74875  0.27861  1.0000
  C   C28       1.0  0.05371  0.25125  0.77861  1.0000
  N   N1        1.0  0.70405  0.00496  0.91922  1.0000
  N   N2        1.0  0.29595  0.99504  0.41922  1.0000
  N   N3        1.0  0.57681  0.97638  0.83208  1.0000
  N   N4        1.0  0.42319  0.02362  0.33209  1.0000
  N   N5        1.0  0.86364  0.59631  0.42782  1.0000
  N   N6        1.0  0.13636  0.40369  0.92783  1.0000
  N   N7        1.0  0.98542  0.71476  0.39460  1.0000
  N   N8        1.0  0.01457  0.28524  0.89460  1.0000
  Cl  Cl1       1.0  0.61134  0.36167  0.01811  1.0000
  Cl  Cl2       1.0  0.38866  0.63833  0.51811  1.0000
  Cl  Cl3       1.0  0.91072  0.13010  0.17316  1.0000
  Cl  Cl4       1.0  0.08928  0.86990  0.67316  1.0000
