data_image0
_chemical_formula_structural       Cu4H18C26I2N8
_chemical_formula_sum              "Cu4 H18 C26 I2 N8"
_cell_length_a       5.331
_cell_length_b       7.53934
_cell_length_c       15.5277
_cell_angle_alpha    89.9999
_cell_angle_beta     89.9995
_cell_angle_gamma    90.5372

_space_group_name_H-M_alt    "P 1"
_space_group_IT_number       1

loop_
  _space_group_symop_operation_xyz
  'x, y, z'

loop_
  _atom_site_type_symbol
  _atom_site_label
  _atom_site_symmetry_multiplicity
  _atom_site_fract_x
  _atom_site_fract_y
  _atom_site_fract_z
  _atom_site_occupancy
  Cu  Cu1       1.0  0.93045  0.40686  0.64997  1.0000
  Cu  Cu2       1.0  0.06956  0.59313  0.14997  1.0000
  Cu  Cu3       1.0  0.06956  0.59313  0.35003  1.0000
  Cu  Cu4       1.0  0.93045  0.40687  0.85003  1.0000
  H   H1        1.0  0.07460  0.58483  0.53809  1.0000
  H   H2        1.0  0.92540  0.41518  0.03809  1.0000
  H   H3        1.0  0.92540  0.41517  0.46191  1.0000
  H   H4        1.0  0.07460  0.58482  0.96191  1.0000
  H   H5        1.0  0.54959  0.78163  0.34689  1.0000
  H   H6        1.0  0.45043  0.21837  0.84689  1.0000
  H   H7        1.0  0.45042  0.21836  0.65311  1.0000
  H   H8        1.0  0.54959  0.78163  0.15311  1.0000
  H   H9        1.0  0.85237  0.89168  0.45588  1.0000
  H   H10       1.0  0.14763  0.10833  0.95588  1.0000
  H   H11       1.0  0.14763  0.10832  0.54412  1.0000
  H   H12       1.0  0.85236  0.89168  0.04412  1.0000
  H   H13       1.0  0.76347  0.84391  0.61332  1.0000
  H   H14       1.0  0.23652  0.15611  0.11332  1.0000
  H   H15       1.0  0.23652  0.15609  0.38668  1.0000
  H   H16       1.0  0.76347  0.84391  0.88667  1.0000
  H   H17       1.0  0.63892  0.82883  0.75000  1.0000
  H   H18       1.0  0.36107  0.17119  0.25000  1.0000
  C   C1        1.0  0.25132  0.65069  0.52168  1.0000
  C   C2        1.0  0.74869  0.34932  0.02168  1.0000
  C   C3        1.0  0.74868  0.34931  0.47832  1.0000
  C   C4        1.0  0.25131  0.65068  0.97832  1.0000
  C   C5        1.0  0.51562  0.76036  0.41529  1.0000
  C   C6        1.0  0.48439  0.23965  0.91529  1.0000
  C   C7        1.0  0.48438  0.23964  0.58471  1.0000
  C   C8        1.0  0.51561  0.76035  0.08471  1.0000
  C   C9        1.0  0.68384  0.82176  0.47725  1.0000
  C   C10       1.0  0.31617  0.17824  0.97725  1.0000
  C   C11       1.0  0.31617  0.17823  0.52275  1.0000
  C   C12       1.0  0.68384  0.82176  0.02275  1.0000
  C   C13       1.0  0.63385  0.79482  0.56419  1.0000
  C   C14       1.0  0.36615  0.20519  0.06420  1.0000
  C   C15       1.0  0.36614  0.20519  0.43581  1.0000
  C   C16       1.0  0.63384  0.79482  0.93580  1.0000
  C   C17       1.0  0.41065  0.70606  0.58812  1.0000
  C   C18       1.0  0.58935  0.29394  0.08812  1.0000
  C   C19       1.0  0.58935  0.29393  0.41188  1.0000
  C   C20       1.0  0.41065  0.70607  0.91188  1.0000
  C   C21       1.0  0.35053  0.67236  0.67824  1.0000
  C   C22       1.0  0.64946  0.32764  0.17825  1.0000
  C   C23       1.0  0.64948  0.32765  0.32176  1.0000
  C   C24       1.0  0.35053  0.67236  0.82175  1.0000
  C   C25       1.0  0.47917  0.73859  0.75000  1.0000
  C   C26       1.0  0.52083  0.26140  0.25000  1.0000
  I   I1        1.0  0.97258  0.11020  0.75000  1.0000
  I   I2        1.0  0.02740  0.88980  0.25000  1.0000
  N   N1        1.0  0.30057  0.67497  0.43722  1.0000
  N   N2        1.0  0.69944  0.32503  0.93722  1.0000
  N   N3        1.0  0.69944  0.32502  0.56278  1.0000
  N   N4        1.0  0.30056  0.67497  0.06279  1.0000
  N   N5        1.0  0.15512  0.56797  0.70612  1.0000
  N   N6        1.0  0.84488  0.43203  0.20613  1.0000
  N   N7        1.0  0.84489  0.43203  0.29387  1.0000
  N   N8        1.0  0.15512  0.56797  0.79387  1.0000
