data_image0
_chemical_formula_structural       Y4H8C8O24
_chemical_formula_sum              "Y4 H8 C8 O24"
_cell_length_a       7.77752
_cell_length_b       8.47986
_cell_length_c       9.56798
_cell_angle_alpha    90
_cell_angle_beta     90.0001
_cell_angle_gamma    117.312

_space_group_name_H-M_alt    "P 1"
_space_group_IT_number       1

loop_
  _space_group_symop_operation_xyz
  'x, y, z'

loop_
  _atom_site_type_symbol
  _atom_site_label
  _atom_site_symmetry_multiplicity
  _atom_site_fract_x
  _atom_site_fract_y
  _atom_site_fract_z
  _atom_site_occupancy
  Y   Y1        1.0  0.29229  0.58462  0.25011  1.0000
  Y   Y2        1.0  0.70771  0.41538  0.75011  1.0000
  Y   Y3        1.0  0.70795  0.41587  0.24992  1.0000
  Y   Y4        1.0  0.29205  0.58413  0.74992  1.0000
  H   H1        1.0  0.00553  0.79901  0.25548  1.0000
  H   H2        1.0  0.99447  0.20099  0.75548  1.0000
  H   H3        1.0  0.20634  0.20097  0.74448  1.0000
  H   H4        1.0  0.79366  0.79903  0.24448  1.0000
  H   H5        1.0  0.20660  0.20151  0.25543  1.0000
  H   H6        1.0  0.79340  0.79849  0.75543  1.0000
  H   H7        1.0  0.00530  0.79850  0.74456  1.0000
  H   H8        1.0  0.99470  0.20150  0.24456  1.0000
  C   C1        1.0  0.40090  0.00025  0.25763  1.0000
  C   C2        1.0  0.59910  0.99975  0.75763  1.0000
  C   C3        1.0  0.40068  0.99973  0.74234  1.0000
  C   C4        1.0  0.59933  0.00026  0.24234  1.0000
  C   C5        1.0  0.91673  0.44709  0.50002  1.0000
  C   C6        1.0  0.08327  0.55291  0.00002  1.0000
  C   C7        1.0  0.46992  0.55280  0.50000  1.0000
  C   C8        1.0  0.53007  0.44720  1.00000  1.0000
  O   O1        1.0  0.25302  0.85035  0.26328  1.0000
  O   O2        1.0  0.74698  0.14965  0.76328  1.0000
  O   O3        1.0  0.40271  0.14963  0.73687  1.0000
  O   O4        1.0  0.59729  0.85037  0.23687  1.0000
  O   O5        1.0  0.40289  0.15012  0.26315  1.0000
  O   O6        1.0  0.59711  0.84987  0.76315  1.0000
  O   O7        1.0  0.25278  0.84984  0.73665  1.0000
  O   O8        1.0  0.74722  0.15016  0.23665  1.0000
  O   O9        1.0  0.00160  0.49387  0.38083  1.0000
  O   O10       1.0  0.99840  0.50612  0.88083  1.0000
  O   O11       1.0  0.50826  0.50634  0.61920  1.0000
  O   O12       1.0  0.49174  0.49366  0.11920  1.0000
  O   O13       1.0  0.72886  0.35362  0.49996  1.0000
  O   O14       1.0  0.27114  0.64638  0.99996  1.0000
  O   O15       1.0  0.37507  0.64587  0.50006  1.0000
  O   O16       1.0  0.62493  0.35413  0.00006  1.0000
  O   O17       1.0  0.00145  0.49335  0.61930  1.0000
  O   O18       1.0  0.99854  0.50665  0.11930  1.0000
  O   O19       1.0  0.50858  0.50677  0.38073  1.0000
  O   O20       1.0  0.49142  0.49323  0.88074  1.0000
  O   O21       1.0  0.13677  0.27373  0.25017  1.0000
  O   O22       1.0  0.86323  0.72627  0.75017  1.0000
  O   O23       1.0  0.86347  0.72682  0.24982  1.0000
  O   O24       1.0  0.13653  0.27318  0.74982  1.0000
