data_image0
_chemical_formula_structural       Cu4H18C26N8Cl2
_chemical_formula_sum              "Cu4 H18 C26 N8 Cl2"
_cell_length_a       8.71506
_cell_length_b       9.17627
_cell_length_c       9.76455
_cell_angle_alpha    62.8299
_cell_angle_beta     76.0046
_cell_angle_gamma    64.6377

_space_group_name_H-M_alt    "P 1"
_space_group_IT_number       1

loop_
  _space_group_symop_operation_xyz
  'x, y, z'

loop_
  _atom_site_type_symbol
  _atom_site_label
  _atom_site_symmetry_multiplicity
  _atom_site_fract_x
  _atom_site_fract_y
  _atom_site_fract_z
  _atom_site_occupancy
  Cu  Cu1       1.0  0.72991  0.18851  0.08040  1.0000
  Cu  Cu2       1.0  0.27010  0.81149  0.91960  1.0000
  Cu  Cu3       1.0  0.73739  0.01223  0.45483  1.0000
  Cu  Cu4       1.0  0.26260  0.98777  0.54517  1.0000
  H   H1        1.0  0.90944  0.71866  0.99617  1.0000
  H   H2        1.0  0.09056  0.28134  0.00382  1.0000
  H   H3        1.0  0.91374  0.91404  0.71980  1.0000
  H   H4        1.0  0.08626  0.08596  0.28019  1.0000
  H   H5        1.0  0.62137  0.72059  0.62113  1.0000
  H   H6        1.0  0.37863  0.27941  0.37887  1.0000
  H   H7        1.0  0.60531  0.51553  0.89432  1.0000
  H   H8        1.0  0.39470  0.48447  0.10569  1.0000
  H   H9        1.0  0.79008  0.60879  0.26343  1.0000
  H   H10       1.0  0.20993  0.39121  0.73658  1.0000
  H   H11       1.0  0.98592  0.34546  0.54185  1.0000
  H   H12       1.0  0.01407  0.65454  0.45815  1.0000
  H   H13       1.0  0.97636  0.25959  0.82250  1.0000
  H   H14       1.0  0.02364  0.74042  0.17750  1.0000
  H   H15       1.0  0.53874  0.15216  0.89711  1.0000
  H   H16       1.0  0.46127  0.84783  0.10289  1.0000
  H   H17       1.0  0.52854  0.23583  0.61947  1.0000
  H   H18       1.0  0.47146  0.76416  0.38053  1.0000
  C   C1        1.0  0.84186  0.71503  0.91821  1.0000
  C   C2        1.0  0.15814  0.28497  0.08179  1.0000
  C   C3        1.0  0.84521  0.82486  0.76338  1.0000
  C   C4        1.0  0.15478  0.17514  0.23662  1.0000
  C   C5        1.0  0.68426  0.71511  0.70815  1.0000
  C   C6        1.0  0.31575  0.28489  0.29185  1.0000
  C   C7        1.0  0.67543  0.60126  0.86136  1.0000
  C   C8        1.0  0.32457  0.39874  0.13864  1.0000
  C   C9        1.0  0.75644  0.59731  0.97199  1.0000
  C   C10       1.0  0.24356  0.40269  0.02801  1.0000
  C   C11       1.0  0.75388  0.47864  0.13380  1.0000
  C   C12       1.0  0.24613  0.52136  0.86620  1.0000
  C   C13       1.0  0.77511  0.49786  0.26211  1.0000
  C   C14       1.0  0.22490  0.50213  0.73789  1.0000
  C   C15       1.0  0.75446  0.35189  0.38946  1.0000
  C   C16       1.0  0.24554  0.64811  0.61054  1.0000
  C   C17       1.0  0.75462  0.30364  0.55405  1.0000
  C   C18       1.0  0.24538  0.69636  0.44594  1.0000
  C   C19       1.0  0.88147  0.30851  0.61540  1.0000
  C   C20       1.0  0.11853  0.69149  0.38460  1.0000
  C   C21       1.0  0.87763  0.25900  0.77286  1.0000
  C   C22       1.0  0.12236  0.74100  0.22714  1.0000
  C   C23       1.0  0.63438  0.19797  0.81440  1.0000
  C   C24       1.0  0.36562  0.80202  0.18561  1.0000
  C   C25       1.0  0.62967  0.24536  0.65833  1.0000
  C   C26       1.0  0.37032  0.75463  0.34168  1.0000
  N   N1        1.0  0.76709  0.82749  0.65748  1.0000
  N   N2        1.0  0.23291  0.17252  0.34252  1.0000
  N   N3        1.0  0.72730  0.32529  0.18321  1.0000
  N   N4        1.0  0.27270  0.67471  0.81679  1.0000
  N   N5        1.0  0.72679  0.24858  0.33969  1.0000
  N   N6        1.0  0.27321  0.75142  0.66031  1.0000
  N   N7        1.0  0.75516  0.20611  0.87300  1.0000
  N   N8        1.0  0.24484  0.79389  0.12700  1.0000
  Cl  Cl1       1.0  0.68737  0.93433  0.27114  1.0000
  Cl  Cl2       1.0  0.31263  0.06567  0.72886  1.0000
