data_image0
_chemical_formula_structural       Cd4H14C20N10O14
_chemical_formula_sum              "Cd4 H14 C20 N10 O14"
_cell_length_a       6.87487
_cell_length_b       10.4639
_cell_length_c       11.4426
_cell_angle_alpha    68.6912
_cell_angle_beta     75.0908
_cell_angle_gamma    70.0324

_space_group_name_H-M_alt    "P 1"
_space_group_IT_number       1

loop_
  _space_group_symop_operation_xyz
  'x, y, z'

loop_
  _atom_site_type_symbol
  _atom_site_label
  _atom_site_symmetry_multiplicity
  _atom_site_fract_x
  _atom_site_fract_y
  _atom_site_fract_z
  _atom_site_occupancy
  Cd  Cd1       1.0  0.11560  0.42727  0.36631  1.0000
  Cd  Cd2       1.0  0.88439  0.57273  0.63369  1.0000
  Cd  Cd3       1.0  0.36120  0.68113  0.07735  1.0000
  Cd  Cd4       1.0  0.63879  0.31887  0.92265  1.0000
  H   H1        1.0  0.22769  0.01212  0.04626  1.0000
  H   H2        1.0  0.77232  0.98787  0.95374  1.0000
  H   H3        1.0  0.24171  0.98078  0.91853  1.0000
  H   H4        1.0  0.75829  0.01922  0.08147  1.0000
  H   H5        1.0  0.68720  0.03009  0.33467  1.0000
  H   H6        1.0  0.31281  0.96990  0.66533  1.0000
  H   H7        1.0  0.79251  0.04755  0.68214  1.0000
  H   H8        1.0  0.20749  0.95245  0.31786  1.0000
  H   H9        1.0  0.61009  0.43545  0.38151  1.0000
  H   H10       1.0  0.38991  0.56455  0.61849  1.0000
  H   H11       1.0  0.81152  0.81852  0.83767  1.0000
  H   H12       1.0  0.18848  0.18148  0.16233  1.0000
  H   H13       1.0  0.03673  0.81853  0.86934  1.0000
  H   H14       1.0  0.96328  0.18146  0.13066  1.0000
  C   C1        1.0  0.63376  0.24199  0.34617  1.0000
  C   C2        1.0  0.36625  0.75800  0.65383  1.0000
  C   C3        1.0  0.68930  0.09303  0.39176  1.0000
  C   C4        1.0  0.31070  0.90697  0.60824  1.0000
  C   C5        1.0  0.73977  0.02260  0.51436  1.0000
  C   C6        1.0  0.26023  0.97740  0.48565  1.0000
  C   C7        1.0  0.74760  0.10133  0.58805  1.0000
  C   C8        1.0  0.25240  0.89867  0.41195  1.0000
  C   C9        1.0  0.70941  0.24933  0.53848  1.0000
  C   C10       1.0  0.29059  0.75067  0.46152  1.0000
  C   C11       1.0  0.64454  0.32009  0.41967  1.0000
  C   C12       1.0  0.35546  0.67991  0.58033  1.0000
  C   C13       1.0  0.56816  0.31731  0.21788  1.0000
  C   C14       1.0  0.43183  0.68269  0.78212  1.0000
  C   C15       1.0  0.78994  0.86380  0.56409  1.0000
  C   C16       1.0  0.21005  0.13621  0.43591  1.0000
  C   C17       1.0  0.75255  0.32938  0.60934  1.0000
  C   C18       1.0  0.24745  0.67064  0.39064  1.0000
  C   C19       1.0  0.86987  0.71730  0.02046  1.0000
  C   C20       1.0  0.13013  0.28270  0.97954  1.0000
  N   N1        1.0  0.01872  0.66256  0.09610  1.0000
  N   N2        1.0  0.98128  0.33744  0.90390  1.0000
  N   N3        1.0  0.94141  0.57174  0.20153  1.0000
  N   N4        1.0  0.05859  0.42826  0.79847  1.0000
  N   N5        1.0  0.75836  0.56934  0.19237  1.0000
  N   N6        1.0  0.24164  0.43066  0.80763  1.0000
  N   N7        1.0  0.70703  0.66035  0.07921  1.0000
  N   N8        1.0  0.29296  0.33965  0.92078  1.0000
  N   N9        1.0  0.88194  0.82197  0.90561  1.0000
  N   N10       1.0  0.11806  0.17803  0.09438  1.0000
  O   O1        1.0  0.27674  0.93603  0.00390  1.0000
  O   O2        1.0  0.72327  0.06397  0.99610  1.0000
  O   O3        1.0  0.42008  0.43339  0.20174  1.0000
  O   O4        1.0  0.57992  0.56660  0.79826  1.0000
  O   O5        1.0  0.66602  0.25856  0.13168  1.0000
  O   O6        1.0  0.33398  0.74143  0.86832  1.0000
  O   O7        1.0  0.80196  0.79522  0.48885  1.0000
  O   O8        1.0  0.19804  0.20478  0.51116  1.0000
  O   O9        1.0  0.81942  0.79996  0.67935  1.0000
  O   O10       1.0  0.18055  0.20004  0.32066  1.0000
  O   O11       1.0  0.73950  0.27973  0.72798  1.0000
  O   O12       1.0  0.26051  0.72028  0.27203  1.0000
  O   O13       1.0  0.80675  0.44479  0.54027  1.0000
  O   O14       1.0  0.19325  0.55522  0.45972  1.0000
