data_image0
_chemical_formula_structural       Co2P4H18C6N2O14
_chemical_formula_sum              "Co2 P4 H18 C6 N2 O14"
_cell_length_a       5.45976
_cell_length_b       8.58041
_cell_length_c       8.46228
_cell_angle_alpha    92.0826
_cell_angle_beta     89.4172
_cell_angle_gamma    96.0995

_space_group_name_H-M_alt    "P 1"
_space_group_IT_number       1

loop_
  _space_group_symop_operation_xyz
  'x, y, z'

loop_
  _atom_site_type_symbol
  _atom_site_label
  _atom_site_symmetry_multiplicity
  _atom_site_fract_x
  _atom_site_fract_y
  _atom_site_fract_z
  _atom_site_occupancy
  Co  Co1       1.0  0.83848  0.90416  0.13373  1.0000
  Co  Co2       1.0  0.16153  0.09584  0.86627  1.0000
  P   P1        1.0  0.28972  0.87462  0.33627  1.0000
  P   P2        1.0  0.71029  0.12538  0.66373  1.0000
  P   P3        1.0  0.30445  0.75074  0.00106  1.0000
  P   P4        1.0  0.69556  0.24926  0.99894  1.0000
  H   H1        1.0  0.26240  0.25740  0.19500  1.0000
  H   H2        1.0  0.73760  0.74260  0.80500  1.0000
  H   H3        1.0  0.09832  0.21041  0.35775  1.0000
  H   H4        1.0  0.90167  0.78959  0.64225  1.0000
  H   H5        1.0  0.34864  0.90036  0.59127  1.0000
  H   H6        1.0  0.65137  0.09964  0.40873  1.0000
  H   H7        1.0  0.00650  0.66943  0.77501  1.0000
  H   H8        1.0  0.99350  0.33057  0.22498  1.0000
  H   H9        1.0  0.55902  0.61788  0.28508  1.0000
  H   H10       1.0  0.44098  0.38212  0.71493  1.0000
  H   H11       1.0  0.41615  0.49838  0.13572  1.0000
  H   H12       1.0  0.58385  0.50162  0.86428  1.0000
  H   H13       1.0  0.44048  0.39958  0.42464  1.0000
  H   H14       1.0  0.55950  0.60042  0.57537  1.0000
  H   H15       1.0  0.16261  0.48709  0.45597  1.0000
  H   H16       1.0  0.83737  0.51291  0.54402  1.0000
  H   H17       1.0  0.90218  0.56549  0.15218  1.0000
  H   H18       1.0  0.09782  0.43451  0.84782  1.0000
  C   C1        1.0  0.22564  0.69716  0.20774  1.0000
  C   C2        1.0  0.77436  0.30284  0.79226  1.0000
  C   C3        1.0  0.37830  0.56294  0.24604  1.0000
  C   C4        1.0  0.62170  0.43706  0.75396  1.0000
  C   C5        1.0  0.28370  0.44130  0.36562  1.0000
  C   C6        1.0  0.71629  0.55870  0.63439  1.0000
  N   N1        1.0  0.15139  0.30136  0.28418  1.0000
  N   N2        1.0  0.84860  0.69864  0.71582  1.0000
  O   O1        1.0  0.07637  0.97308  0.31380  1.0000
  O   O2        1.0  0.92364  0.02692  0.68620  1.0000
  O   O3        1.0  0.28797  0.81162  0.51148  1.0000
  O   O4        1.0  0.71204  0.18838  0.48852  1.0000
  O   O5        1.0  0.54630  0.95617  0.29877  1.0000
  O   O6        1.0  0.45370  0.04383  0.70122  1.0000
  O   O7        1.0  0.15044  0.88972  0.97591  1.0000
  O   O8        1.0  0.84957  0.11028  0.02409  1.0000
  O   O9        1.0  0.58530  0.78776  0.98741  1.0000
  O   O10       1.0  0.41471  0.21224  0.01259  1.0000
  O   O11       1.0  0.21028  0.61090  0.89366  1.0000
  O   O12       1.0  0.78973  0.38910  0.10633  1.0000
  O   O13       1.0  0.96028  0.66465  0.21519  1.0000
  O   O14       1.0  0.03972  0.33535  0.78481  1.0000
