data_image0
_chemical_formula_structural       Cu6H30W2C30Se6I2N6O2
_chemical_formula_sum              "Cu6 H30 W2 C30 Se6 I2 N6 O2"
_cell_length_a       8.19648
_cell_length_b       8.67982
_cell_length_c       15.5671
_cell_angle_alpha    103.095
_cell_angle_beta     97.9257
_cell_angle_gamma    95.5378

_space_group_name_H-M_alt    "P 1"
_space_group_IT_number       1

loop_
  _space_group_symop_operation_xyz
  'x, y, z'

loop_
  _atom_site_type_symbol
  _atom_site_label
  _atom_site_symmetry_multiplicity
  _atom_site_fract_x
  _atom_site_fract_y
  _atom_site_fract_z
  _atom_site_occupancy
  Cu  Cu1       1.0  0.83461  0.94281  0.72441  1.0000
  Cu  Cu2       1.0  0.16539  0.05720  0.27560  1.0000
  Cu  Cu3       1.0  0.30629  0.91569  0.73348  1.0000
  Cu  Cu4       1.0  0.69371  0.08431  0.26652  1.0000
  Cu  Cu5       1.0  0.15450  0.10939  0.94949  1.0000
  Cu  Cu6       1.0  0.84551  0.89061  0.05051  1.0000
  H   H1        1.0  0.84076  0.99725  0.54533  1.0000
  H   H2        1.0  0.15923  0.00274  0.45467  1.0000
  H   H3        1.0  0.79419  0.21700  0.46903  1.0000
  H   H4        1.0  0.20580  0.78298  0.53097  1.0000
  H   H5        1.0  0.74209  0.48208  0.56096  1.0000
  H   H6        1.0  0.25791  0.51791  0.43903  1.0000
  H   H7        1.0  0.74368  0.51334  0.72478  1.0000
  H   H8        1.0  0.25633  0.48667  0.27521  1.0000
  H   H9        1.0  0.79229  0.28114  0.79049  1.0000
  H   H10       1.0  0.20770  0.71887  0.20951  1.0000
  H   H11       1.0  0.44580  0.05495  0.59453  1.0000
  H   H12       1.0  0.55420  0.94505  0.40547  1.0000
  H   H13       1.0  0.39548  0.28150  0.52342  1.0000
  H   H14       1.0  0.60452  0.71850  0.47658  1.0000
  H   H15       1.0  0.22460  0.48792  0.59448  1.0000
  H   H16       1.0  0.77540  0.51208  0.40552  1.0000
  H   H17       1.0  0.11494  0.45637  0.73291  1.0000
  H   H18       1.0  0.88507  0.54363  0.26710  1.0000
  H   H19       1.0  0.16970  0.21758  0.79187  1.0000
  H   H20       1.0  0.83031  0.78242  0.20814  1.0000
  H   H21       1.0  0.11443  0.43225  0.92558  1.0000
  H   H22       1.0  0.88557  0.56774  0.07442  1.0000
  H   H23       1.0  0.25820  0.70463  0.99564  1.0000
  H   H24       1.0  0.74180  0.29537  0.00436  1.0000
  H   H25       1.0  0.47788  0.74908  0.13226  1.0000
  H   H26       1.0  0.52213  0.25093  0.86774  1.0000
  H   H27       1.0  0.53747  0.50937  0.19317  1.0000
  H   H28       1.0  0.46253  0.49063  0.80683  1.0000
  H   H29       1.0  0.38520  0.24389  0.11438  1.0000
  H   H30       1.0  0.61481  0.75611  0.88562  1.0000
  W   W1        1.0  0.06232  0.81939  0.82954  1.0000
  W   W2        1.0  0.93768  0.18061  0.17046  1.0000
  C   C1        1.0  0.81843  0.11363  0.58242  1.0000
  C   C2        1.0  0.18157  0.88636  0.41758  1.0000
  C   C3        1.0  0.79304  0.23681  0.54058  1.0000
  C   C4        1.0  0.20695  0.76318  0.45942  1.0000
  C   C5        1.0  0.76469  0.38312  0.59142  1.0000
  C   C6        1.0  0.23531  0.61687  0.40857  1.0000
  C   C7        1.0  0.76432  0.40102  0.68259  1.0000
  C   C8        1.0  0.23568  0.59899  0.31741  1.0000
  C   C9        1.0  0.79048  0.27212  0.71945  1.0000
  C   C10       1.0  0.20951  0.72789  0.28055  1.0000
  C   C11       1.0  0.37140  0.14619  0.62197  1.0000
  C   C12       1.0  0.62860  0.85381  0.37803  1.0000
  C   C13       1.0  0.34305  0.27278  0.58315  1.0000
  C   C14       1.0  0.65695  0.72723  0.41685  1.0000
  C   C15       1.0  0.24867  0.38631  0.62230  1.0000
  C   C16       1.0  0.75133  0.61369  0.37770  1.0000
  C   C17       1.0  0.18701  0.36938  0.69930  1.0000
  C   C18       1.0  0.81300  0.63062  0.30071  1.0000
  C   C19       1.0  0.21836  0.23771  0.73282  1.0000
  C   C20       1.0  0.78165  0.76229  0.26718  1.0000
  C   C21       1.0  0.21014  0.45324  0.98443  1.0000
  C   C22       1.0  0.78986  0.54675  0.01557  1.0000
  C   C23       1.0  0.29061  0.60649  0.02455  1.0000
  C   C24       1.0  0.70939  0.39351  0.97545  1.0000
  C   C25       1.0  0.41183  0.63012  0.10018  1.0000
  C   C26       1.0  0.58818  0.36988  0.89982  1.0000
  C   C27       1.0  0.44581  0.49850  0.13375  1.0000
  C   C28       1.0  0.55419  0.50150  0.86625  1.0000
  C   C29       1.0  0.36120  0.34897  0.08998  1.0000
  C   C30       1.0  0.63880  0.65102  0.91003  1.0000
  Se  Se1       1.0  0.03042  0.77159  0.66951  1.0000
  Se  Se2       1.0  0.96958  0.22841  0.33049  1.0000
  Se  Se3       1.0  0.87490  0.00558  0.88585  1.0000
  Se  Se4       1.0  0.12510  0.99441  0.11415  1.0000
  Se  Se5       1.0  0.34489  0.94009  0.89278  1.0000
  Se  Se6       1.0  0.65511  0.05991  0.10722  1.0000
  I   I1        1.0  0.53579  0.76402  0.66620  1.0000
  I   I2        1.0  0.46421  0.23598  0.33380  1.0000
  N   N1        1.0  0.81575  0.12959  0.67046  1.0000
  N   N2        1.0  0.18424  0.87042  0.32955  1.0000
  N   N3        1.0  0.30866  0.12689  0.69509  1.0000
  N   N4        1.0  0.69134  0.87312  0.30491  1.0000
  N   N5        1.0  0.24623  0.32541  0.01568  1.0000
  N   N6        1.0  0.75377  0.67459  0.98432  1.0000
  O   O1        1.0  0.02070  0.63807  0.85724  1.0000
  O   O2        1.0  0.97931  0.36193  0.14276  1.0000
