data_image0
_chemical_formula_structural       V8Ni2H8C8N4O20
_chemical_formula_sum              "V8 Ni2 H8 C8 N4 O20"
_cell_length_a       6.81382
_cell_length_b       7.89178
_cell_length_c       11.6019
_cell_angle_alpha    89.9995
_cell_angle_beta     90.0009
_cell_angle_gamma    115.567

_space_group_name_H-M_alt    "P 1"
_space_group_IT_number       1

loop_
  _space_group_symop_operation_xyz
  'x, y, z'

loop_
  _atom_site_type_symbol
  _atom_site_label
  _atom_site_symmetry_multiplicity
  _atom_site_fract_x
  _atom_site_fract_y
  _atom_site_fract_z
  _atom_site_occupancy
  V   V1        1.0  0.34743  0.42023  0.39528  1.0000
  V   V2        1.0  0.65256  0.57976  0.89528  1.0000
  V   V3        1.0  0.92735  0.58014  0.10468  1.0000
  V   V4        1.0  0.07265  0.41986  0.60469  1.0000
  V   V5        1.0  0.65256  0.57976  0.60472  1.0000
  V   V6        1.0  0.34743  0.42023  0.10472  1.0000
  V   V7        1.0  0.07265  0.41985  0.89531  1.0000
  V   V8        1.0  0.92735  0.58015  0.39531  1.0000
  Ni  Ni1       1.0  0.18678  0.00015  0.25000  1.0000
  Ni  Ni2       1.0  0.81322  0.99984  0.75000  1.0000
  H   H1        1.0  0.86935  0.00010  0.07024  1.0000
  H   H2        1.0  0.13065  0.99992  0.57024  1.0000
  H   H3        1.0  0.86935  0.00010  0.42976  1.0000
  H   H4        1.0  0.13065  0.99991  0.92977  1.0000
  H   H5        1.0  0.49719  0.00002  0.07325  1.0000
  H   H6        1.0  0.50282  1.00000  0.57324  1.0000
  H   H7        1.0  0.49719  0.00002  0.42676  1.0000
  H   H8        1.0  0.50281  0.99999  0.92675  1.0000
  C   C1        1.0  0.78777  0.00010  0.15077  1.0000
  C   C2        1.0  0.21224  0.99991  0.65075  1.0000
  C   C3        1.0  0.78776  0.00010  0.34924  1.0000
  C   C4        1.0  0.21223  0.99990  0.84923  1.0000
  C   C5        1.0  0.58396  0.00005  0.15143  1.0000
  C   C6        1.0  0.41605  0.99997  0.65144  1.0000
  C   C7        1.0  0.58396  0.00004  0.34856  1.0000
  C   C8        1.0  0.41604  0.99997  0.84857  1.0000
  N   N1        1.0  0.88955  0.00016  0.24999  1.0000
  N   N2        1.0  0.11046  0.99985  0.75001  1.0000
  N   N3        1.0  0.48217  0.00004  0.25001  1.0000
  N   N4        1.0  0.51782  0.99997  0.74999  1.0000
  O   O1        1.0  0.28767  0.19643  0.37774  1.0000
  O   O2        1.0  0.71233  0.80358  0.87772  1.0000
  O   O3        1.0  0.09124  0.80397  0.12214  1.0000
  O   O4        1.0  0.90876  0.19601  0.62215  1.0000
  O   O5        1.0  0.71233  0.80357  0.62227  1.0000
  O   O6        1.0  0.28767  0.19643  0.12226  1.0000
  O   O7        1.0  0.90876  0.19601  0.87785  1.0000
  O   O8        1.0  0.09124  0.80397  0.37786  1.0000
  O   O9        1.0  0.64598  0.55754  0.42885  1.0000
  O   O10       1.0  0.35402  0.44246  0.92884  1.0000
  O   O11       1.0  0.08893  0.44288  0.07107  1.0000
  O   O12       1.0  0.91106  0.55710  0.57107  1.0000
  O   O13       1.0  0.35402  0.44246  0.57116  1.0000
  O   O14       1.0  0.64598  0.55754  0.07115  1.0000
  O   O15       1.0  0.91106  0.55709  0.92893  1.0000
  O   O16       1.0  0.08893  0.44289  0.42893  1.0000
  O   O17       1.0  0.36866  0.50371  0.25000  1.0000
  O   O18       1.0  0.63132  0.49626  0.75000  1.0000
  O   O19       1.0  0.86549  0.49680  0.25000  1.0000
  O   O20       1.0  0.13451  0.50321  0.75000  1.0000
