data_image0
_chemical_formula_structural       V8Zn2H8C8N4O20
_chemical_formula_sum              "V8 Zn2 H8 C8 N4 O20"
_cell_length_a       6.9668
_cell_length_b       7.98909
_cell_length_c       11.5625
_cell_angle_alpha    89.9998
_cell_angle_beta     90.0002
_cell_angle_gamma    115.857

_space_group_name_H-M_alt    "P 1"
_space_group_IT_number       1

loop_
  _space_group_symop_operation_xyz
  'x, y, z'

loop_
  _atom_site_type_symbol
  _atom_site_label
  _atom_site_symmetry_multiplicity
  _atom_site_fract_x
  _atom_site_fract_y
  _atom_site_fract_z
  _atom_site_occupancy
  V   V1        1.0  0.42381  0.57608  0.39582  1.0000
  V   V2        1.0  0.15238  0.57611  0.60416  1.0000
  V   V3        1.0  0.84763  0.42390  0.10416  1.0000
  V   V4        1.0  0.57619  0.42392  0.89583  1.0000
  V   V5        1.0  0.57619  0.42391  0.60418  1.0000
  V   V6        1.0  0.84762  0.42389  0.39584  1.0000
  V   V7        1.0  0.15237  0.57611  0.89584  1.0000
  V   V8        1.0  0.42381  0.57609  0.10417  1.0000
  Zn  Zn1       1.0  0.67780  0.00001  0.25000  1.0000
  Zn  Zn2       1.0  0.32220  0.99999  0.75000  1.0000
  H   H1        1.0  0.99239  0.00009  0.07283  1.0000
  H   H2        1.0  0.00761  0.99991  0.92717  1.0000
  H   H3        1.0  0.99239  0.00009  0.42717  1.0000
  H   H4        1.0  0.00761  0.99991  0.57283  1.0000
  H   H5        1.0  0.35898  0.00000  0.06958  1.0000
  H   H6        1.0  0.64101  1.00000  0.93043  1.0000
  H   H7        1.0  0.35898  0.00000  0.43043  1.0000
  H   H8        1.0  0.64101  0.99999  0.56957  1.0000
  C   C1        1.0  0.07842  0.00009  0.15084  1.0000
  C   C2        1.0  0.92157  0.99990  0.84916  1.0000
  C   C3        1.0  0.07842  0.00009  0.34916  1.0000
  C   C4        1.0  0.92157  0.99990  0.65084  1.0000
  C   C5        1.0  0.27782  0.00001  0.15003  1.0000
  C   C6        1.0  0.72217  0.99999  0.84997  1.0000
  C   C7        1.0  0.27782  0.00001  0.34998  1.0000
  C   C8        1.0  0.72217  0.99999  0.65002  1.0000
  N   N1        1.0  0.98047  0.00011  0.25000  1.0000
  N   N2        1.0  0.01953  0.99989  0.75000  1.0000
  N   N3        1.0  0.37531  0.99998  0.25000  1.0000
  N   N4        1.0  0.62469  0.00001  0.75000  1.0000
  O   O1        1.0  0.40257  0.54597  0.56942  1.0000
  O   O2        1.0  0.14342  0.54579  0.43058  1.0000
  O   O3        1.0  0.85658  0.45419  0.93058  1.0000
  O   O4        1.0  0.59745  0.45405  0.06942  1.0000
  O   O5        1.0  0.59742  0.45401  0.43058  1.0000
  O   O6        1.0  0.85658  0.45421  0.56942  1.0000
  O   O7        1.0  0.14343  0.54582  0.06942  1.0000
  O   O8        1.0  0.40257  0.54598  0.93058  1.0000
  O   O9        1.0  0.57895  0.79993  0.38090  1.0000
  O   O10       1.0  0.22098  0.79993  0.61904  1.0000
  O   O11       1.0  0.77904  0.20008  0.11905  1.0000
  O   O12       1.0  0.42104  0.20006  0.88090  1.0000
  O   O13       1.0  0.42106  0.20006  0.61911  1.0000
  O   O14       1.0  0.77902  0.20007  0.38095  1.0000
  O   O15       1.0  0.22096  0.79992  0.88095  1.0000
  O   O16       1.0  0.57895  0.79994  0.11910  1.0000
  O   O17       1.0  0.36532  0.49162  0.25000  1.0000
  O   O18       1.0  0.12656  0.49167  0.75000  1.0000
  O   O19       1.0  0.87345  0.50834  0.25000  1.0000
  O   O20       1.0  0.63468  0.50838  0.75000  1.0000
