data_image0
_chemical_formula_structural       Cd2H16C16N8Cl4O4
_chemical_formula_sum              "Cd2 H16 C16 N8 Cl4 O4"
_cell_length_a       3.81708
_cell_length_b       7.52282
_cell_length_c       20.1113
_cell_angle_alpha    90.0003
_cell_angle_beta     91.6296
_cell_angle_gamma    90.0001

_space_group_name_H-M_alt    "P 1"
_space_group_IT_number       1

loop_
  _space_group_symop_operation_xyz
  'x, y, z'

loop_
  _atom_site_type_symbol
  _atom_site_label
  _atom_site_symmetry_multiplicity
  _atom_site_fract_x
  _atom_site_fract_y
  _atom_site_fract_z
  _atom_site_occupancy
  Cd  Cd1       1.0  0.50001  0.50000  0.50000  1.0000
  Cd  Cd2       1.0  0.50000  1.00000  1.00000  1.0000
  H   H1        1.0  0.17618  0.04849  0.27948  1.0000
  H   H2        1.0  0.82382  0.54849  0.22052  1.0000
  H   H3        1.0  0.82381  0.95151  0.72052  1.0000
  H   H4        1.0  0.17617  0.45151  0.77948  1.0000
  H   H5        1.0  0.18830  0.50881  0.34376  1.0000
  H   H6        1.0  0.81170  0.00881  0.15624  1.0000
  H   H7        1.0  0.81170  0.49119  0.65624  1.0000
  H   H8        1.0  0.18831  0.99119  0.84376  1.0000
  H   H9        1.0  0.53181  0.13167  0.37180  1.0000
  H   H10       1.0  0.46819  0.63167  0.12820  1.0000
  H   H11       1.0  0.46818  0.86833  0.62820  1.0000
  H   H12       1.0  0.53180  0.36833  0.87180  1.0000
  H   H13       1.0  0.69928  0.89807  0.45815  1.0000
  H   H14       1.0  0.30072  0.39806  0.04185  1.0000
  H   H15       1.0  0.30072  0.10193  0.54185  1.0000
  H   H16       1.0  0.69928  0.60193  0.95815  1.0000
  C   C1        1.0  0.26836  0.64737  0.34963  1.0000
  C   C2        1.0  0.73164  0.14737  0.15037  1.0000
  C   C3        1.0  0.73164  0.35263  0.65037  1.0000
  C   C4        1.0  0.26836  0.85263  0.84963  1.0000
  C   C5        1.0  0.15896  0.77425  0.29920  1.0000
  C   C6        1.0  0.84104  0.27425  0.20080  1.0000
  C   C7        1.0  0.84105  0.22575  0.70080  1.0000
  C   C8        1.0  0.15896  0.72575  0.79920  1.0000
  C   C9        1.0  0.45854  0.99261  0.36646  1.0000
  C   C10       1.0  0.54146  0.49261  0.13354  1.0000
  C   C11       1.0  0.54146  0.00739  0.63354  1.0000
  C   C12       1.0  0.45854  0.50739  0.86646  1.0000
  C   C13       1.0  0.54822  0.86595  0.41309  1.0000
  C   C14       1.0  0.45178  0.36595  0.08691  1.0000
  C   C15       1.0  0.45178  0.13405  0.58691  1.0000
  C   C16       1.0  0.54822  0.63405  0.91309  1.0000
  N   N1        1.0  0.44724  0.69378  0.40400  1.0000
  N   N2        1.0  0.55275  0.19378  0.09600  1.0000
  N   N3        1.0  0.55276  0.30622  0.59600  1.0000
  N   N4        1.0  0.44725  0.80622  0.90400  1.0000
  N   N5        1.0  0.26889  0.94617  0.31153  1.0000
  N   N6        1.0  0.73111  0.44617  0.18848  1.0000
  N   N7        1.0  0.73111  0.05384  0.68847  1.0000
  N   N8        1.0  0.26889  0.55383  0.81152  1.0000
  Cl  Cl1       1.0  0.00934  0.69969  0.55186  1.0000
  Cl  Cl2       1.0  0.99067  0.19970  0.94814  1.0000
  Cl  Cl3       1.0  0.99068  0.30030  0.44814  1.0000
  Cl  Cl4       1.0  0.00933  0.80030  0.05186  1.0000
  O   O1        1.0  0.97058  0.74002  0.24840  1.0000
  O   O2        1.0  0.02943  0.24002  0.25161  1.0000
  O   O3        1.0  0.02943  0.25998  0.75161  1.0000
  O   O4        1.0  0.97056  0.75998  0.74839  1.0000
