data_image0
_chemical_formula_structural       Cd2H16C16I4N8O4
_chemical_formula_sum              "Cd2 H16 C16 I4 N8 O4"
_cell_length_a       4.17328
_cell_length_b       7.7988
_cell_length_c       20.4386
_cell_angle_alpha    89.9996
_cell_angle_beta     90.4918
_cell_angle_gamma    89.9999

_space_group_name_H-M_alt    "P 1"
_space_group_IT_number       1

loop_
  _space_group_symop_operation_xyz
  'x, y, z'

loop_
  _atom_site_type_symbol
  _atom_site_label
  _atom_site_symmetry_multiplicity
  _atom_site_fract_x
  _atom_site_fract_y
  _atom_site_fract_z
  _atom_site_occupancy
  Cd  Cd1       1.0  0.50000  0.50000  0.50000  1.0000
  Cd  Cd2       1.0  0.49999  1.00000  1.00000  1.0000
  H   H1        1.0  0.31316  0.88200  0.55790  1.0000
  H   H2        1.0  0.68686  0.38201  0.94211  1.0000
  H   H3        1.0  0.68686  0.11800  0.44211  1.0000
  H   H4        1.0  0.31315  0.61798  0.05789  1.0000
  H   H5        1.0  0.79644  0.48767  0.65526  1.0000
  H   H6        1.0  0.20356  0.98769  0.84476  1.0000
  H   H7        1.0  0.20353  0.51233  0.34475  1.0000
  H   H8        1.0  0.79641  0.01231  0.15524  1.0000
  H   H9        1.0  0.49408  0.09261  0.64539  1.0000
  H   H10       1.0  0.50596  0.59262  0.85461  1.0000
  H   H11       1.0  0.50593  0.90740  0.35461  1.0000
  H   H12       1.0  0.49407  0.40737  0.14539  1.0000
  H   H13       1.0  0.84310  0.99995  0.72778  1.0000
  H   H14       1.0  0.15691  0.49996  0.77222  1.0000
  H   H15       1.0  0.15690  0.00005  0.27222  1.0000
  H   H16       1.0  0.84308  0.50005  0.22778  1.0000
  C   C1        1.0  0.46012  0.84264  0.59953  1.0000
  C   C2        1.0  0.53990  0.34265  0.90048  1.0000
  C   C3        1.0  0.53987  0.15737  0.40047  1.0000
  C   C4        1.0  0.46011  0.65734  0.09952  1.0000
  C   C5        1.0  0.72616  0.62248  0.65325  1.0000
  C   C6        1.0  0.27384  0.12249  0.84675  1.0000
  C   C7        1.0  0.27382  0.37751  0.34675  1.0000
  C   C8        1.0  0.72615  0.87750  0.15324  1.0000
  C   C9        1.0  0.55835  0.95740  0.64651  1.0000
  C   C10       1.0  0.44167  0.45740  0.85349  1.0000
  C   C11       1.0  0.44166  0.04261  0.35349  1.0000
  C   C12       1.0  0.55832  0.54259  0.14650  1.0000
  C   C13       1.0  0.84734  0.73671  0.70341  1.0000
  C   C14       1.0  0.15269  0.23672  0.79659  1.0000
  C   C15       1.0  0.15266  0.26328  0.29659  1.0000
  C   C16       1.0  0.84731  0.76329  0.20340  1.0000
  I   I1        1.0  0.98207  0.73345  0.44876  1.0000
  I   I2        1.0  0.01793  0.23344  0.05125  1.0000
  I   I3        1.0  0.01793  0.26656  0.55124  1.0000
  I   I4        1.0  0.98208  0.76656  0.94876  1.0000
  N   N1        1.0  0.55009  0.67508  0.60331  1.0000
  N   N2        1.0  0.44993  0.17510  0.89670  1.0000
  N   N3        1.0  0.44991  0.32492  0.39669  1.0000
  N   N4        1.0  0.55007  0.82490  0.10330  1.0000
  N   N5        1.0  0.74820  0.90463  0.69649  1.0000
  N   N6        1.0  0.25184  0.40464  0.80352  1.0000
  N   N7        1.0  0.25180  0.09537  0.30351  1.0000
  N   N8        1.0  0.74819  0.59535  0.19649  1.0000
  O   O1        1.0  0.03459  0.69450  0.74923  1.0000
  O   O2        1.0  0.96544  0.19450  0.75077  1.0000
  O   O3        1.0  0.96541  0.30550  0.25077  1.0000
  O   O4        1.0  0.03456  0.80550  0.24922  1.0000
