data_image0
_chemical_formula_structural       Cd2H16C16I4N8O4
_chemical_formula_sum              "Cd2 H16 C16 I4 N8 O4"
_cell_length_a       4.10255
_cell_length_b       7.70939
_cell_length_c       21.5745
_cell_angle_alpha    90.0006
_cell_angle_beta     90.2204
_cell_angle_gamma    90.0004

_space_group_name_H-M_alt    "P 1"
_space_group_IT_number       1

loop_
  _space_group_symop_operation_xyz
  'x, y, z'

loop_
  _atom_site_type_symbol
  _atom_site_label
  _atom_site_symmetry_multiplicity
  _atom_site_fract_x
  _atom_site_fract_y
  _atom_site_fract_z
  _atom_site_occupancy
  Cd  Cd1       1.0  0.49999  0.50000  0.50000  1.0000
  Cd  Cd2       1.0  0.49999  0.99999  0.00000  1.0000
  H   H1        1.0  0.72353  0.55286  0.64568  1.0000
  H   H2        1.0  0.27649  0.05287  0.85433  1.0000
  H   H3        1.0  0.27649  0.44714  0.35431  1.0000
  H   H4        1.0  0.72353  0.94714  0.14568  1.0000
  H   H5        1.0  0.36175  0.10576  0.56160  1.0000
  H   H6        1.0  0.63820  0.60575  0.93839  1.0000
  H   H7        1.0  0.63823  0.89423  0.43840  1.0000
  H   H8        1.0  0.36178  0.39424  0.06161  1.0000
  H   H9        1.0  0.91492  0.39483  0.72859  1.0000
  H   H10       1.0  0.08506  0.89485  0.77141  1.0000
  H   H11       1.0  0.08510  0.60518  0.27141  1.0000
  H   H12       1.0  0.91495  0.10516  0.22859  1.0000
  H   H13       1.0  0.53115  0.92715  0.65246  1.0000
  H   H14       1.0  0.46879  0.42716  0.84753  1.0000
  H   H15       1.0  0.46885  0.07284  0.34754  1.0000
  H   H16       1.0  0.53118  0.57284  0.15247  1.0000
  C   C1        1.0  0.67564  0.41372  0.64604  1.0000
  C   C2        1.0  0.32436  0.91373  0.85396  1.0000
  C   C3        1.0  0.32437  0.58627  0.35395  1.0000
  C   C4        1.0  0.67565  0.08627  0.14604  1.0000
  C   C5        1.0  0.48175  0.16461  0.60170  1.0000
  C   C6        1.0  0.51822  0.66460  0.89829  1.0000
  C   C7        1.0  0.51824  0.83538  0.39830  1.0000
  C   C8        1.0  0.48177  0.33539  0.10171  1.0000
  C   C9        1.0  0.57513  0.06635  0.65161  1.0000
  C   C10       1.0  0.42482  0.56635  0.84838  1.0000
  C   C11       1.0  0.42487  0.93365  0.34839  1.0000
  C   C12       1.0  0.57517  0.43365  0.15162  1.0000
  C   C13       1.0  0.74432  0.14580  0.70257  1.0000
  C   C14       1.0  0.25563  0.64582  0.79743  1.0000
  C   C15       1.0  0.25569  0.85421  0.29743  1.0000
  C   C16       1.0  0.74436  0.35419  0.20257  1.0000
  I   I1        1.0  0.98343  0.25409  0.45357  1.0000
  I   I2        1.0  0.01655  0.75410  0.04643  1.0000
  I   I3        1.0  0.01655  0.74589  0.54643  1.0000
  I   I4        1.0  0.98345  0.24589  0.95357  1.0000
  N   N1        1.0  0.53028  0.34029  0.59832  1.0000
  N   N2        1.0  0.46971  0.84029  0.90167  1.0000
  N   N3        1.0  0.46972  0.65970  0.40168  1.0000
  N   N4        1.0  0.53029  0.15970  0.09833  1.0000
  N   N5        1.0  0.78130  0.32508  0.69580  1.0000
  N   N6        1.0  0.21868  0.82510  0.80419  1.0000
  N   N7        1.0  0.21872  0.67492  0.30419  1.0000
  N   N8        1.0  0.78133  0.17491  0.19581  1.0000
  O   O1        1.0  0.85672  0.07287  0.74982  1.0000
  O   O2        1.0  0.14316  0.57289  0.75017  1.0000
  O   O3        1.0  0.14329  0.92714  0.25018  1.0000
  O   O4        1.0  0.85683  0.42713  0.24983  1.0000
