data_image0
_chemical_formula_structural       Cd2H24C32Br4N8O4
_chemical_formula_sum              "Cd2 H24 C32 Br4 N8 O4"
_cell_length_a       3.90648
_cell_length_b       14.4067
_cell_length_c       15.9231
_cell_angle_alpha    72.6006
_cell_angle_beta     82.9467
_cell_angle_gamma    82.2255

_space_group_name_H-M_alt    "P 1"
_space_group_IT_number       1

loop_
  _space_group_symop_operation_xyz
  'x, y, z'

loop_
  _atom_site_type_symbol
  _atom_site_label
  _atom_site_symmetry_multiplicity
  _atom_site_fract_x
  _atom_site_fract_y
  _atom_site_fract_z
  _atom_site_occupancy
  Cd  Cd1       1.0  0.89146  0.75015  0.25004  1.0000
  Cd  Cd2       1.0  0.10854  0.24984  0.74997  1.0000
  H   H1        1.0  0.31534  0.56583  0.01628  1.0000
  H   H2        1.0  0.89736  0.93441  0.48368  1.0000
  H   H3        1.0  0.68465  0.43417  0.98372  1.0000
  H   H4        1.0  0.10265  0.06560  0.51632  1.0000
  H   H5        1.0  0.98590  0.67992  0.08122  1.0000
  H   H6        1.0  0.74641  0.82046  0.41875  1.0000
  H   H7        1.0  0.01408  0.32008  0.91878  1.0000
  H   H8        1.0  0.25359  0.17955  0.58125  1.0000
  H   H9        1.0  0.65822  0.29352  0.25486  1.0000
  H   H10       1.0  0.20671  0.20696  0.24498  1.0000
  H   H11       1.0  0.34178  0.70648  0.74514  1.0000
  H   H12       1.0  0.79329  0.79304  0.75502  1.0000
  H   H13       1.0  0.52367  0.25482  0.41804  1.0000
  H   H14       1.0  0.19615  0.24561  0.08186  1.0000
  H   H15       1.0  0.47633  0.74518  0.58196  1.0000
  H   H16       1.0  0.80385  0.75439  0.91814  1.0000
  H   H17       1.0  0.13436  0.37412  0.48158  1.0000
  H   H18       1.0  0.98927  0.12628  0.01839  1.0000
  H   H19       1.0  0.86565  0.62588  0.51843  1.0000
  H   H20       1.0  0.01074  0.87372  0.98161  1.0000
  H   H21       1.0  0.89406  0.53221  0.38368  1.0000
  H   H22       1.0  0.80985  0.96808  0.11633  1.0000
  H   H23       1.0  0.10594  0.46779  0.61632  1.0000
  H   H24       1.0  0.19018  0.03192  0.88366  1.0000
  C   C1        1.0  0.08552  0.61022  0.12521  1.0000
  C   C2        1.0  0.82071  0.89014  0.37476  1.0000
  C   C3        1.0  0.91446  0.38978  0.87480  1.0000
  C   C4        1.0  0.17930  0.10987  0.62524  1.0000
  C   C5        1.0  0.42916  0.45635  0.13313  1.0000
  C   C6        1.0  0.01846  0.04406  0.36684  1.0000
  C   C7        1.0  0.57083  0.54366  0.86687  1.0000
  C   C8        1.0  0.98155  0.95594  0.63316  1.0000
  C   C9        1.0  0.35757  0.43417  0.22831  1.0000
  C   C10       1.0  0.01989  0.06624  0.27167  1.0000
  C   C11       1.0  0.64243  0.56583  0.77169  1.0000
  C   C12       1.0  0.98010  0.93376  0.72833  1.0000
  C   C13       1.0  0.49275  0.34475  0.28432  1.0000
  C   C14       1.0  0.12171  0.15568  0.21561  1.0000
  C   C15       1.0  0.50726  0.65525  0.71568  1.0000
  C   C16       1.0  0.87831  0.84432  0.78439  1.0000
  C   C17       1.0  0.41600  0.32379  0.37481  1.0000
  C   C18       1.0  0.11439  0.17660  0.12512  1.0000
  C   C19       1.0  0.58400  0.67621  0.62519  1.0000
  C   C20       1.0  0.88562  0.82340  0.87488  1.0000
  C   C21       1.0  0.19931  0.39145  0.41040  1.0000
  C   C22       1.0  0.00081  0.10891  0.08955  1.0000
  C   C23       1.0  0.80069  0.60854  0.58960  1.0000
  C   C24       1.0  0.99921  0.89109  0.91045  1.0000
  C   C25       1.0  0.06577  0.48026  0.35638  1.0000
  C   C26       1.0  0.90243  0.02005  0.14360  1.0000
  C   C27       1.0  0.93422  0.51973  0.64362  1.0000
  C   C28       1.0  0.09759  0.97995  0.85640  1.0000
  C   C29       1.0  0.14694  0.50393  0.26442  1.0000
  C   C30       1.0  0.91542  0.99642  0.23555  1.0000
  C   C31       1.0  0.85305  0.49606  0.73558  1.0000
  C   C32       1.0  0.08459  0.00358  0.76444  1.0000
  Br  Br1       1.0  0.37022  0.68752  0.37784  1.0000
  Br  Br2       1.0  0.43602  0.81293  0.12229  1.0000
  Br  Br3       1.0  0.62978  0.31248  0.62216  1.0000
  Br  Br4       1.0  0.56396  0.18706  0.87773  1.0000
  N   N1        1.0  0.01959  0.59406  0.21040  1.0000
  N   N2        1.0  0.82389  0.90630  0.28957  1.0000
  N   N3        1.0  0.98039  0.40593  0.78960  1.0000
  N   N4        1.0  0.17612  0.09370  0.71043  1.0000
  N   N5        1.0  0.27378  0.54600  0.08586  1.0000
  N   N6        1.0  0.90535  0.95438  0.41410  1.0000
  N   N7        1.0  0.72621  0.45400  0.91414  1.0000
  N   N8        1.0  0.09466  0.04562  0.58589  1.0000
  O   O1        1.0  0.61419  0.40154  0.09366  1.0000
  O   O2        1.0  0.10912  0.09888  0.40630  1.0000
  O   O3        1.0  0.38581  0.59846  0.90633  1.0000
  O   O4        1.0  0.89089  0.90112  0.59369  1.0000
