data_image0
_chemical_formula_structural       Cd2H16C16Br4N8O4
_chemical_formula_sum              "Cd2 H16 C16 Br4 N8 O4"
_cell_length_a       3.94222
_cell_length_b       6.66455
_cell_length_c       23.4494
_cell_angle_alpha    89.9992
_cell_angle_beta     89.9973
_cell_angle_gamma    96.6807

_space_group_name_H-M_alt    "P 1"
_space_group_IT_number       1

loop_
  _space_group_symop_operation_xyz
  'x, y, z'

loop_
  _atom_site_type_symbol
  _atom_site_label
  _atom_site_symmetry_multiplicity
  _atom_site_fract_x
  _atom_site_fract_y
  _atom_site_fract_z
  _atom_site_occupancy
  Cd  Cd1       1.0  0.50002  0.50000  0.00000  1.0000
  Cd  Cd2       1.0  0.00001  0.99999  0.50000  1.0000
  H   H1        1.0  0.26588  0.56131  0.86899  1.0000
  H   H2        1.0  0.23415  0.93870  0.36900  1.0000
  H   H3        1.0  0.73414  0.43869  0.13101  1.0000
  H   H4        1.0  0.76584  0.06131  0.63100  1.0000
  H   H5        1.0  0.71675  0.07837  0.93591  1.0000
  H   H6        1.0  0.78328  0.42165  0.43591  1.0000
  H   H7        1.0  0.28328  0.92164  0.06409  1.0000
  H   H8        1.0  0.21674  0.57837  0.56409  1.0000
  H   H9        1.0  0.29425  0.43842  0.77810  1.0000
  H   H10       1.0  0.20576  0.06157  0.27810  1.0000
  H   H11       1.0  0.70574  0.56160  0.22190  1.0000
  H   H12       1.0  0.79424  0.93840  0.72190  1.0000
  H   H13       1.0  0.76822  0.93277  0.83876  1.0000
  H   H14       1.0  0.73179  0.56723  0.33876  1.0000
  H   H15       1.0  0.23181  0.06725  0.16123  1.0000
  H   H16       1.0  0.26819  0.43275  0.66123  1.0000
  C   C1        1.0  0.38090  0.42123  0.86315  1.0000
  C   C2        1.0  0.11907  0.07879  0.36315  1.0000
  C   C3        1.0  0.61908  0.57879  0.13685  1.0000
  C   C4        1.0  0.88093  0.92124  0.63685  1.0000
  C   C5        1.0  0.62737  0.15282  0.89828  1.0000
  C   C6        1.0  0.87267  0.34719  0.39828  1.0000
  C   C7        1.0  0.37268  0.84719  0.10172  1.0000
  C   C8        1.0  0.12730  0.65280  0.60172  1.0000
  C   C9        1.0  0.65616  0.07315  0.84484  1.0000
  C   C10       1.0  0.84379  0.42684  0.34485  1.0000
  C   C11       1.0  0.34382  0.92685  0.15515  1.0000
  C   C12       1.0  0.15619  0.57315  0.65515  1.0000
  C   C13       1.0  0.54268  0.17620  0.79594  1.0000
  C   C14       1.0  0.95730  0.32380  0.29594  1.0000
  C   C15       1.0  0.45731  0.82381  0.20406  1.0000
  C   C16       1.0  0.04267  0.67617  0.70406  1.0000
  Br  Br1       1.0  0.05875  0.75383  0.95799  1.0000
  Br  Br2       1.0  0.44124  0.74616  0.45799  1.0000
  Br  Br3       1.0  0.94128  0.24618  0.04202  1.0000
  Br  Br4       1.0  0.55875  0.25381  0.54202  1.0000
  N   N1        1.0  0.49106  0.32961  0.90805  1.0000
  N   N2        1.0  0.00895  0.17038  0.40806  1.0000
  N   N3        1.0  0.50895  0.67038  0.09194  1.0000
  N   N4        1.0  0.99104  0.82962  0.59194  1.0000
  N   N5        1.0  0.39935  0.35212  0.80963  1.0000
  N   N6        1.0  0.10064  0.14788  0.30965  1.0000
  N   N7        1.0  0.60065  0.64788  0.19037  1.0000
  N   N8        1.0  0.89934  0.85211  0.69036  1.0000
  O   O1        1.0  0.56141  0.12471  0.74471  1.0000
  O   O2        1.0  0.93855  0.37527  0.24471  1.0000
  O   O3        1.0  0.43855  0.87531  0.25529  1.0000
  O   O4        1.0  0.06145  0.62470  0.75528  1.0000
