data_image0
_chemical_formula_structural       LiAlH16C28N4O4
_chemical_formula_sum              "Li1 Al1 H16 C28 N4 O4"
_cell_length_a       6.90543
_cell_length_b       6.90786
_cell_length_c       13.6692
_cell_angle_alpha    104.677
_cell_angle_beta     104.645
_cell_angle_gamma    89.9635

_space_group_name_H-M_alt    "P 1"
_space_group_IT_number       1

loop_
  _space_group_symop_operation_xyz
  'x, y, z'

loop_
  _atom_site_type_symbol
  _atom_site_label
  _atom_site_symmetry_multiplicity
  _atom_site_fract_x
  _atom_site_fract_y
  _atom_site_fract_z
  _atom_site_occupancy
  Li  Li1       1.0  0.99984  0.00004  0.99999  1.0000
  Al  Al1       1.0  0.25035  0.74997  0.49999  1.0000
  H   H1        1.0  0.58069  0.83801  0.78025  1.0000
  H   H2        1.0  0.19757  0.94226  0.78037  1.0000
  H   H3        1.0  0.05729  0.41868  0.21949  1.0000
  H   H4        1.0  0.16192  0.80154  0.22005  1.0000
  H   H5        1.0  0.68810  0.63138  0.90620  1.0000
  H   H6        1.0  0.21585  0.27501  0.90609  1.0000
  H   H7        1.0  0.72460  0.31124  0.09384  1.0000
  H   H8        1.0  0.36818  0.78262  0.09392  1.0000
  H   H9        1.0  0.60414  0.09913  0.64755  1.0000
  H   H10       1.0  0.04537  0.54813  0.64734  1.0000
  H   H11       1.0  0.45170  0.39719  0.35268  1.0000
  H   H12       1.0  0.90107  0.95501  0.35217  1.0000
  H   H13       1.0  0.49393  0.30752  0.52244  1.0000
  H   H14       1.0  0.03100  0.21429  0.52234  1.0000
  H   H15       1.0  0.78573  0.50768  0.47768  1.0000
  H   H16       1.0  0.69321  0.97035  0.47757  1.0000
  C   C1        1.0  0.53309  0.58711  0.64307  1.0000
  C   C2        1.0  0.11004  0.05549  0.64303  1.0000
  C   C3        1.0  0.94430  0.46710  0.35690  1.0000
  C   C4        1.0  0.41306  0.89032  0.35714  1.0000
  C   C5        1.0  0.58644  0.67657  0.75194  1.0000
  C   C6        1.0  0.16416  0.07522  0.75191  1.0000
  C   C7        1.0  0.92443  0.41317  0.24799  1.0000
  C   C8        1.0  0.32341  0.83539  0.24828  1.0000
  C   C9        1.0  0.64558  0.56108  0.82219  1.0000
  C   C10       1.0  0.17530  0.26113  0.82208  1.0000
  C   C11       1.0  0.73853  0.35408  0.17785  1.0000
  C   C12       1.0  0.43872  0.82383  0.17789  1.0000
  C   C13       1.0  0.65376  0.35209  0.78489  1.0000
  C   C14       1.0  0.13101  0.43278  0.78469  1.0000
  C   C15       1.0  0.56697  0.34644  0.21530  1.0000
  C   C16       1.0  0.64786  0.86844  0.21502  1.0000
  C   C17       1.0  0.59916  0.26100  0.67618  1.0000
  C   C18       1.0  0.07815  0.41489  0.67599  1.0000
  C   C19       1.0  0.58496  0.40170  0.32401  1.0000
  C   C20       1.0  0.73910  0.92208  0.32370  1.0000
  C   C21       1.0  0.53953  0.37755  0.60640  1.0000
  C   C22       1.0  0.06809  0.22835  0.60627  1.0000
  C   C23       1.0  0.77152  0.46142  0.39371  1.0000
  C   C24       1.0  0.62276  0.93256  0.39365  1.0000
  C   C25       1.0  0.72432  0.23605  0.85647  1.0000
  C   C26       1.0  0.13179  0.62054  0.85619  1.0000
  C   C27       1.0  0.37918  0.27588  0.14379  1.0000
  C   C28       1.0  0.76394  0.86759  0.14344  1.0000
  N   N1        1.0  0.78826  0.14047  0.91534  1.0000
  N   N2        1.0  0.12645  0.77492  0.91514  1.0000
  N   N3        1.0  0.22476  0.21193  0.08483  1.0000
  N   N4        1.0  0.85957  0.87293  0.08462  1.0000
  O   O1        1.0  0.48092  0.70185  0.57631  1.0000
  O   O2        1.0  0.09590  0.87377  0.57640  1.0000
  O   O3        1.0  0.12606  0.51951  0.42347  1.0000
  O   O4        1.0  0.29839  0.90471  0.42396  1.0000
