data_image0
_chemical_formula_structural       AlAgH16C28N4O4
_chemical_formula_sum              "Al1 Ag1 H16 C28 N4 O4"
_cell_length_a       6.89946
_cell_length_b       6.90014
_cell_length_c       13.931
_cell_angle_alpha    104.214
_cell_angle_beta     104.275
_cell_angle_gamma    89.9372

_space_group_name_H-M_alt    "P 1"
_space_group_IT_number       1

loop_
  _space_group_symop_operation_xyz
  'x, y, z'

loop_
  _atom_site_type_symbol
  _atom_site_label
  _atom_site_symmetry_multiplicity
  _atom_site_fract_x
  _atom_site_fract_y
  _atom_site_fract_z
  _atom_site_occupancy
  Al  Al1       1.0  0.49919  0.50066  0.99997  1.0000
  Ag  Ag1       1.0  0.25183  0.74999  0.50021  1.0000
  H   H1        1.0  0.93544  0.72168  0.97605  1.0000
  H   H2        1.0  0.04024  0.25767  0.97627  1.0000
  H   H3        1.0  0.74255  0.06453  0.02398  1.0000
  H   H4        1.0  0.27765  0.96016  0.02369  1.0000
  H   H5        1.0  0.14218  0.69977  0.85103  1.0000
  H   H6        1.0  0.70889  0.15478  0.85183  1.0000
  H   H7        1.0  0.84661  0.85745  0.14880  1.0000
  H   H8        1.0  0.30040  0.29146  0.14844  1.0000
  H   H9        1.0  0.60722  0.53322  0.60160  1.0000
  H   H10       1.0  0.99501  0.06426  0.60177  1.0000
  H   H11       1.0  0.93475  0.39253  0.39834  1.0000
  H   H12       1.0  0.46630  0.00512  0.39824  1.0000
  H   H13       1.0  0.40229  0.56061  0.72749  1.0000
  H   H14       1.0  0.32533  0.16423  0.72706  1.0000
  H   H15       1.0  0.83537  0.59770  0.27255  1.0000
  H   H16       1.0  0.43842  0.67475  0.27274  1.0000
  C   C1        1.0  0.65478  0.64583  0.85977  1.0000
  C   C2        1.0  0.20485  0.21501  0.85967  1.0000
  C   C3        1.0  0.78519  0.34515  0.14026  1.0000
  C   C4        1.0  0.35393  0.79540  0.14020  1.0000
  C   C5        1.0  0.86454  0.68463  0.89419  1.0000
  C   C6        1.0  0.02949  0.21154  0.89440  1.0000
  C   C7        1.0  0.78873  0.13532  0.10580  1.0000
  C   C8        1.0  0.31512  0.97085  0.10561  1.0000
  C   C9        1.0  0.97994  0.67020  0.82453  1.0000
  C   C10       1.0  0.84461  0.15612  0.82501  1.0000
  C   C11       1.0  0.84451  0.01973  0.17540  1.0000
  C   C12       1.0  0.32980  0.15569  0.17507  1.0000
  C   C13       1.0  0.88757  0.61594  0.71857  1.0000
  C   C14       1.0  0.83129  0.10247  0.71902  1.0000
  C   C15       1.0  0.89779  0.11202  0.28135  1.0000
  C   C16       1.0  0.38409  0.16884  0.28109  1.0000
  C   C17       1.0  0.67799  0.57625  0.68359  1.0000
  C   C18       1.0  0.00594  0.10550  0.68377  1.0000
  C   C19       1.0  0.89432  0.32171  0.31637  1.0000
  C   C20       1.0  0.42340  0.99419  0.31624  1.0000
  C   C21       1.0  0.56385  0.59202  0.75369  1.0000
  C   C22       1.0  0.18997  0.16043  0.75356  1.0000
  C   C23       1.0  0.83951  0.43603  0.24633  1.0000
  C   C24       1.0  0.40744  0.81013  0.24637  1.0000
  C   C25       1.0  0.00347  0.60272  0.64707  1.0000
  C   C26       1.0  0.64435  0.04386  0.64768  1.0000
  C   C27       1.0  0.95627  0.99600  0.35280  1.0000
  C   C28       1.0  0.39742  0.35583  0.35252  1.0000
  N   N1        1.0  0.09991  0.59196  0.58782  1.0000
  N   N2        1.0  0.48925  0.99494  0.58835  1.0000
  N   N3        1.0  0.00496  0.89952  0.41207  1.0000
  N   N4        1.0  0.40827  0.51095  0.41189  1.0000
  O   O1        1.0  0.54053  0.66091  0.92594  1.0000
  O   O2        1.0  0.38501  0.26698  0.92555  1.0000
  O   O3        1.0  0.73314  0.45955  0.07419  1.0000
  O   O4        1.0  0.33909  0.61520  0.07421  1.0000
