data_image0
_chemical_formula_structural       Sr4H8C20N8O16
_chemical_formula_sum              "Sr4 H8 C20 N8 O16"
_cell_length_a       6.83537
_cell_length_b       6.96612
_cell_length_c       13.5951
_cell_angle_alpha    89.9989
_cell_angle_beta     90.0003
_cell_angle_gamma    107.468

_space_group_name_H-M_alt    "P 1"
_space_group_IT_number       1

loop_
  _space_group_symop_operation_xyz
  'x, y, z'

loop_
  _atom_site_type_symbol
  _atom_site_label
  _atom_site_symmetry_multiplicity
  _atom_site_fract_x
  _atom_site_fract_y
  _atom_site_fract_z
  _atom_site_occupancy
  Sr  Sr1       1.0  0.22528  0.38541  0.54513  1.0000
  Sr  Sr2       1.0  0.27472  0.61459  0.04513  1.0000
  Sr  Sr3       1.0  0.77472  0.61458  0.45487  1.0000
  Sr  Sr4       1.0  0.72528  0.38542  0.95487  1.0000
  H   H1        1.0  0.35862  0.85237  0.25477  1.0000
  H   H2        1.0  0.14138  0.14763  0.75477  1.0000
  H   H3        1.0  0.64138  0.14763  0.74523  1.0000
  H   H4        1.0  0.85862  0.85237  0.24523  1.0000
  H   H5        1.0  0.36506  0.92210  0.43654  1.0000
  H   H6        1.0  0.13494  0.07790  0.93654  1.0000
  H   H7        1.0  0.63494  0.07790  0.56346  1.0000
  H   H8        1.0  0.86506  0.92210  0.06346  1.0000
  C   C1        1.0  0.37004  0.03449  0.38085  1.0000
  C   C2        1.0  0.12996  0.96552  0.88085  1.0000
  C   C3        1.0  0.62996  0.96552  0.61915  1.0000
  C   C4        1.0  0.87004  0.03448  0.11915  1.0000
  C   C5        1.0  0.36954  0.16390  0.23206  1.0000
  C   C6        1.0  0.13046  0.83610  0.73206  1.0000
  C   C7        1.0  0.63045  0.83610  0.76794  1.0000
  C   C8        1.0  0.86954  0.16390  0.26794  1.0000
  C   C9        1.0  0.37947  0.31015  0.30413  1.0000
  C   C10       1.0  0.12053  0.68986  0.80413  1.0000
  C   C11       1.0  0.62053  0.68985  0.69587  1.0000
  C   C12       1.0  0.87947  0.31014  0.19587  1.0000
  C   C13       1.0  0.38228  0.52387  0.30351  1.0000
  C   C14       1.0  0.11772  0.47613  0.80352  1.0000
  C   C15       1.0  0.61772  0.47613  0.69649  1.0000
  C   C16       1.0  0.88228  0.52387  0.19648  1.0000
  C   C17       1.0  0.37603  0.15264  0.12291  1.0000
  C   C18       1.0  0.12398  0.84738  0.62291  1.0000
  C   C19       1.0  0.62397  0.84737  0.87709  1.0000
  C   C20       1.0  0.87602  0.15261  0.37709  1.0000
  N   N1        1.0  0.38104  0.22597  0.39616  1.0000
  N   N2        1.0  0.11896  0.77403  0.89616  1.0000
  N   N3        1.0  0.61896  0.77403  0.60384  1.0000
  N   N4        1.0  0.88104  0.22597  0.10384  1.0000
  N   N5        1.0  0.36267  0.99252  0.28413  1.0000
  N   N6        1.0  0.13733  0.00749  0.78413  1.0000
  N   N7        1.0  0.63733  0.00748  0.71587  1.0000
  N   N8        1.0  0.86267  0.99251  0.21587  1.0000
  O   O1        1.0  0.41497  0.61185  0.38753  1.0000
  O   O2        1.0  0.08504  0.38816  0.88752  1.0000
  O   O3        1.0  0.58504  0.38815  0.61247  1.0000
  O   O4        1.0  0.91496  0.61184  0.11248  1.0000
  O   O5        1.0  0.35137  0.60914  0.22496  1.0000
  O   O6        1.0  0.14863  0.39085  0.72495  1.0000
  O   O7        1.0  0.64863  0.39086  0.77504  1.0000
  O   O8        1.0  0.85136  0.60915  0.27505  1.0000
  O   O9        1.0  0.41497  0.31537  0.07172  1.0000
  O   O10       1.0  0.08503  0.68463  0.57172  1.0000
  O   O11       1.0  0.58503  0.68464  0.92828  1.0000
  O   O12       1.0  0.91497  0.31537  0.42828  1.0000
  O   O13       1.0  0.34913  0.97984  0.08713  1.0000
  O   O14       1.0  0.15087  0.02016  0.58713  1.0000
  O   O15       1.0  0.65087  0.02016  0.91287  1.0000
  O   O16       1.0  0.84913  0.97984  0.41287  1.0000
