data_image0
_chemical_formula_structural       Sr2H16C20N8O18
_chemical_formula_sum              "Sr2 H16 C20 N8 O18"
_cell_length_a       6.96809
_cell_length_b       6.94962
_cell_length_c       14.6422
_cell_angle_alpha    104.709
_cell_angle_beta     104.728
_cell_angle_gamma    86.0467

_space_group_name_H-M_alt    "P 1"
_space_group_IT_number       1

loop_
  _space_group_symop_operation_xyz
  'x, y, z'

loop_
  _atom_site_type_symbol
  _atom_site_label
  _atom_site_symmetry_multiplicity
  _atom_site_fract_x
  _atom_site_fract_y
  _atom_site_fract_z
  _atom_site_occupancy
  Sr  Sr1       1.0  0.60280  0.88344  0.72030  1.0000
  Sr  Sr2       1.0  0.38214  0.16294  0.27969  1.0000
  H   H1        1.0  0.24912  0.24863  0.69153  1.0000
  H   H2        1.0  0.05816  0.55694  0.30855  1.0000
  H   H3        1.0  0.56340  0.41226  0.70999  1.0000
  H   H4        1.0  0.35371  0.70208  0.28999  1.0000
  H   H5        1.0  0.54057  0.54061  0.81118  1.0000
  H   H6        1.0  0.22900  0.72907  0.18889  1.0000
  H   H7        1.0  0.54938  0.53263  0.02519  1.0000
  H   H8        1.0  0.02439  0.50713  0.97484  1.0000
  H   H9        1.0  0.80646  0.04928  0.15829  1.0000
  H   H10       1.0  0.14823  0.89070  0.84156  1.0000
  H   H11       1.0  0.71639  0.69421  0.50953  1.0000
  H   H12       1.0  0.70642  0.18496  0.49055  1.0000
  H   H13       1.0  0.82358  0.77054  0.00683  1.0000
  H   H14       1.0  0.31652  0.76326  0.99294  1.0000
  H   H15       1.0  0.69834  0.59738  0.32595  1.0000
  H   H16       1.0  0.87184  0.27219  0.67413  1.0000
  C   C1        1.0  0.75284  0.91383  0.00495  1.0000
  C   C2        1.0  0.24775  0.90848  0.99489  1.0000
  C   C3        1.0  0.60479  0.16886  0.95806  1.0000
  C   C4        1.0  0.14670  0.21043  0.04186  1.0000
  C   C5        1.0  0.65252  0.21979  0.05953  1.0000
  C   C6        1.0  0.09303  0.15997  0.94038  1.0000
  C   C7        1.0  0.49767  0.28925  0.88980  1.0000
  C   C8        1.0  0.10784  0.39911  0.11017  1.0000
  C   C9        1.0  0.60136  0.39429  0.12996  1.0000
  C   C10       1.0  0.97146  0.26408  0.87001  1.0000
  C   C11       1.0  0.83195  0.62836  0.38456  1.0000
  C   C12       1.0  0.94689  0.24428  0.61552  1.0000
  C   C13       1.0  0.15095  0.65591  0.46470  1.0000
  C   C14       1.0  0.18576  0.19120  0.53538  1.0000
  C   C15       1.0  0.03641  0.70250  0.53315  1.0000
  C   C16       1.0  0.00283  0.16936  0.46693  1.0000
  C   C17       1.0  0.36626  0.63602  0.46515  1.0000
  C   C18       1.0  0.40065  0.17086  0.53489  1.0000
  C   C19       1.0  0.07086  0.75908  0.64289  1.0000
  C   C20       1.0  0.92754  0.11617  0.35718  1.0000
  N   N1        1.0  0.66654  0.97640  0.92517  1.0000
  N   N2        1.0  0.24122  0.05079  0.07470  1.0000
  N   N3        1.0  0.74437  0.05497  0.08717  1.0000
  N   N4        1.0  0.15718  0.96749  0.91269  1.0000
  N   N5        1.0  0.01750  0.61026  0.37412  1.0000
  N   N6        1.0  0.14289  0.23640  0.62597  1.0000
  N   N7        1.0  0.84111  0.68140  0.47976  1.0000
  N   N8        1.0  0.86089  0.20195  0.52032  1.0000
  O   O1        1.0  0.42571  0.20015  0.80236  1.0000
  O   O2        1.0  0.12309  0.39745  0.19759  1.0000
  O   O3        1.0  0.57488  0.54872  0.75122  1.0000
  O   O4        1.0  0.32313  0.79741  0.24885  1.0000
  O   O5        1.0  0.48810  0.47918  0.92302  1.0000
  O   O6        1.0  0.06530  0.55584  0.07699  1.0000
  O   O7        1.0  0.56667  0.56179  0.10259  1.0000
  O   O8        1.0  0.96415  0.45896  0.89742  1.0000
  O   O9        1.0  0.58980  0.37886  0.21112  1.0000
  O   O10       1.0  0.87869  0.16756  0.78885  1.0000
  O   O11       1.0  0.49635  0.70559  0.54283  1.0000
  O   O12       1.0  0.45296  0.16238  0.45715  1.0000
  O   O13       1.0  0.40404  0.55015  0.38399  1.0000
  O   O14       1.0  0.51964  0.16658  0.61607  1.0000
  O   O15       1.0  0.23865  0.82039  0.69521  1.0000
  O   O16       1.0  0.04299  0.12505  0.30484  1.0000
  O   O17       1.0  0.91943  0.74108  0.67320  1.0000
  O   O18       1.0  0.74577  0.06800  0.32692  1.0000
