data_image0
_chemical_formula_structural       Co4H32C36N4O20
_chemical_formula_sum              "Co4 H32 C36 N4 O20"
_cell_length_a       6.68735
_cell_length_b       7.57275
_cell_length_c       22.4561
_cell_angle_alpha    89.9968
_cell_angle_beta     89.9996
_cell_angle_gamma    90.0001

_space_group_name_H-M_alt    "P 1"
_space_group_IT_number       1

loop_
  _space_group_symop_operation_xyz
  'x, y, z'

loop_
  _atom_site_type_symbol
  _atom_site_label
  _atom_site_symmetry_multiplicity
  _atom_site_fract_x
  _atom_site_fract_y
  _atom_site_fract_z
  _atom_site_occupancy
  Co  Co1       1.0  0.54870  0.74688  0.70952  1.0000
  Co  Co2       1.0  0.45128  0.74688  0.29047  1.0000
  Co  Co3       1.0  0.95128  0.25312  0.20952  1.0000
  Co  Co4       1.0  0.04871  0.25312  0.79047  1.0000
  H   H1        1.0  0.62287  0.62108  0.88814  1.0000
  H   H2        1.0  0.37719  0.62106  0.11188  1.0000
  H   H3        1.0  0.87715  0.37892  0.38811  1.0000
  H   H4        1.0  0.12283  0.37894  0.61188  1.0000
  H   H5        1.0  0.83544  0.75825  0.88127  1.0000
  H   H6        1.0  0.16459  0.75822  0.11874  1.0000
  H   H7        1.0  0.66456  0.24176  0.38125  1.0000
  H   H8        1.0  0.33543  0.24178  0.61874  1.0000
  H   H9        1.0  0.51251  0.92271  0.87260  1.0000
  H   H10       1.0  0.48749  0.92272  0.12740  1.0000
  H   H11       1.0  0.98748  0.07728  0.37260  1.0000
  H   H12       1.0  0.01248  0.07730  0.62741  1.0000
  H   H13       1.0  0.31524  0.86969  0.78907  1.0000
  H   H14       1.0  0.68476  0.86970  0.21094  1.0000
  H   H15       1.0  0.18475  0.13028  0.28906  1.0000
  H   H16       1.0  0.81523  0.13030  0.71094  1.0000
  H   H17       1.0  0.96403  0.65870  0.67295  1.0000
  H   H18       1.0  0.03598  0.65868  0.32705  1.0000
  H   H19       1.0  0.53599  0.34131  0.17296  1.0000
  H   H20       1.0  0.46401  0.34133  0.82705  1.0000
  H   H21       1.0  0.17862  0.67691  0.58263  1.0000
  H   H22       1.0  0.82140  0.67690  0.41737  1.0000
  H   H23       1.0  0.32137  0.32309  0.08264  1.0000
  H   H24       1.0  0.67859  0.32311  0.91738  1.0000
  H   H25       1.0  0.67863  0.91846  0.49164  1.0000
  H   H26       1.0  0.32138  0.91848  0.50835  1.0000
  H   H27       1.0  0.82138  0.08154  0.99164  1.0000
  H   H28       1.0  0.17862  0.08151  0.00836  1.0000
  H   H29       1.0  0.48916  0.89927  0.58854  1.0000
  H   H30       1.0  0.51084  0.89926  0.41145  1.0000
  H   H31       1.0  0.01086  0.10075  0.08854  1.0000
  H   H32       1.0  0.98916  0.10070  0.91146  1.0000
  C   C1        1.0  0.79248  0.57961  0.80879  1.0000
  C   C2        1.0  0.20756  0.57960  0.19123  1.0000
  C   C3        1.0  0.70754  0.42039  0.30877  1.0000
  C   C4        1.0  0.29247  0.42040  0.69122  1.0000
  C   C5        1.0  0.70808  0.70260  0.85659  1.0000
  C   C6        1.0  0.29194  0.70258  0.14341  1.0000
  C   C7        1.0  0.79191  0.29741  0.35658  1.0000
  C   C8        1.0  0.20808  0.29743  0.64341  1.0000
  C   C9        1.0  0.57471  0.85153  0.83396  1.0000
  C   C10       1.0  0.42528  0.85152  0.16603  1.0000
  C   C11       1.0  0.92529  0.14847  0.33396  1.0000
  C   C12       1.0  0.07472  0.14848  0.66604  1.0000
  C   C13       1.0  0.69959  0.98543  0.79846  1.0000
  C   C14       1.0  0.30039  0.98543  0.20154  1.0000
  C   C15       1.0  0.80038  0.01454  0.29846  1.0000
  C   C16       1.0  0.19960  0.01457  0.70154  1.0000
  C   C17       1.0  0.90761  0.71581  0.63169  1.0000
  C   C18       1.0  0.09241  0.71580  0.36830  1.0000
  C   C19       1.0  0.59240  0.28419  0.13169  1.0000
  C   C20       1.0  0.40759  0.28420  0.86831  1.0000
  C   C21       1.0  0.02523  0.72526  0.58069  1.0000
  C   C22       1.0  0.97478  0.72526  0.41931  1.0000
  C   C23       1.0  0.47478  0.27473  0.08069  1.0000
  C   C24       1.0  0.52521  0.27475  0.91931  1.0000
  C   C25       1.0  0.94303  0.79369  0.52809  1.0000
  C   C26       1.0  0.05698  0.79370  0.47191  1.0000
  C   C27       1.0  0.55698  0.20631  0.02809  1.0000
  C   C28       1.0  0.44301  0.20629  0.97192  1.0000
  C   C29       1.0  0.74651  0.85834  0.53075  1.0000
  C   C30       1.0  0.25350  0.85836  0.46924  1.0000
  C   C31       1.0  0.75348  0.14165  0.03076  1.0000
  C   C32       1.0  0.24650  0.14162  0.96925  1.0000
  C   C33       1.0  0.64068  0.84819  0.58375  1.0000
  C   C34       1.0  0.35932  0.84820  0.41624  1.0000
  C   C35       1.0  0.85932  0.15181  0.08375  1.0000
  C   C36       1.0  0.14067  0.15178  0.91625  1.0000
  N   N1        1.0  0.71764  0.77521  0.63350  1.0000
  N   N2        1.0  0.28236  0.77519  0.36650  1.0000
  N   N3        1.0  0.78236  0.22481  0.13349  1.0000
  N   N4        1.0  0.21763  0.22479  0.86650  1.0000
  O   O1        1.0  0.76080  0.60635  0.75385  1.0000
  O   O2        1.0  0.23919  0.60632  0.24616  1.0000
  O   O3        1.0  0.73921  0.39369  0.25383  1.0000
  O   O4        1.0  0.26080  0.39367  0.74617  1.0000
  O   O5        1.0  0.89521  0.45177  0.82946  1.0000
  O   O6        1.0  0.10485  0.45176  0.17055  1.0000
  O   O7        1.0  0.60482  0.54823  0.32944  1.0000
  O   O8        1.0  0.39520  0.54826  0.67056  1.0000
  O   O9        1.0  0.41761  0.77564  0.79931  1.0000
  O   O10       1.0  0.58239  0.77564  0.20069  1.0000
  O   O11       1.0  0.08238  0.22435  0.29930  1.0000
  O   O12       1.0  0.91760  0.22436  0.70070  1.0000
  O   O13       1.0  0.67374  0.98784  0.74191  1.0000
  O   O14       1.0  0.32625  0.98784  0.25808  1.0000
  O   O15       1.0  0.82625  0.01216  0.24192  1.0000
  O   O16       1.0  0.17375  0.01216  0.75809  1.0000
  O   O17       1.0  0.82002  0.08128  0.82710  1.0000
  O   O18       1.0  0.17994  0.08125  0.17289  1.0000
  O   O19       1.0  0.67998  0.91875  0.32710  1.0000
  O   O20       1.0  0.32003  0.91874  0.67290  1.0000
