data_image0
_chemical_formula_structural       Ag12H20C32S4O32
_chemical_formula_sum              "Ag12 H20 C32 S4 O32"
_cell_length_a       7.06761
_cell_length_b       12.2501
_cell_length_c       13.4718
_cell_angle_alpha    107.544
_cell_angle_beta     89.9999
_cell_angle_gamma    90.0001

_space_group_name_H-M_alt    "P 1"
_space_group_IT_number       1

loop_
  _space_group_symop_operation_xyz
  'x, y, z'

loop_
  _atom_site_type_symbol
  _atom_site_label
  _atom_site_symmetry_multiplicity
  _atom_site_fract_x
  _atom_site_fract_y
  _atom_site_fract_z
  _atom_site_occupancy
  Ag  Ag1       1.0  0.66507  0.72287  0.80258  1.0000
  Ag  Ag2       1.0  0.16507  0.77713  0.19742  1.0000
  Ag  Ag3       1.0  0.33494  0.27713  0.19742  1.0000
  Ag  Ag4       1.0  0.83493  0.22287  0.80258  1.0000
  Ag  Ag5       1.0  0.18751  0.50618  0.46672  1.0000
  Ag  Ag6       1.0  0.68752  0.99382  0.53328  1.0000
  Ag  Ag7       1.0  0.81249  0.49382  0.53328  1.0000
  Ag  Ag8       1.0  0.31249  0.00618  0.46672  1.0000
  Ag  Ag9       1.0  0.58261  0.90371  0.71548  1.0000
  Ag  Ag10      1.0  0.08260  0.59629  0.28452  1.0000
  Ag  Ag11      1.0  0.41740  0.09629  0.28452  1.0000
  Ag  Ag12      1.0  0.91740  0.40371  0.71548  1.0000
  H   H1        1.0  0.55593  0.75303  0.52050  1.0000
  H   H2        1.0  0.05593  0.74697  0.47950  1.0000
  H   H3        1.0  0.44407  0.24697  0.47950  1.0000
  H   H4        1.0  0.94407  0.25303  0.52050  1.0000
  H   H5        1.0  0.38897  0.72784  0.58882  1.0000
  H   H6        1.0  0.88897  0.77216  0.41118  1.0000
  H   H7        1.0  0.61103  0.27216  0.41118  1.0000
  H   H8        1.0  0.11103  0.22784  0.58882  1.0000
  H   H9        1.0  0.78337  0.21940  0.98595  1.0000
  H   H10       1.0  0.28337  0.28060  0.01405  1.0000
  H   H11       1.0  0.21663  0.78060  0.01405  1.0000
  H   H12       1.0  0.71663  0.71940  0.98595  1.0000
  H   H13       1.0  0.90703  0.34459  0.15309  1.0000
  H   H14       1.0  0.40703  0.15541  0.84691  1.0000
  H   H15       1.0  0.09297  0.65541  0.84691  1.0000
  H   H16       1.0  0.59297  0.84459  0.15309  1.0000
  H   H17       1.0  0.80806  0.93269  0.10693  1.0000
  H   H18       1.0  0.30807  0.56731  0.89307  1.0000
  H   H19       1.0  0.19194  0.06731  0.89306  1.0000
  H   H20       1.0  0.69194  0.43269  0.10694  1.0000
  C   C1        1.0  0.71404  0.98637  0.93443  1.0000
  C   C2        1.0  0.21404  0.51363  0.06557  1.0000
  C   C3        1.0  0.28596  0.01363  0.06557  1.0000
  C   C4        1.0  0.78596  0.48637  0.93443  1.0000
  C   C5        1.0  0.78108  0.06722  0.03588  1.0000
  C   C6        1.0  0.28108  0.43278  0.96412  1.0000
  C   C7        1.0  0.21892  0.93278  0.96412  1.0000
  C   C8        1.0  0.71892  0.56723  0.03588  1.0000
  C   C9        1.0  0.81047  0.18369  0.04945  1.0000
  C   C10       1.0  0.31047  0.31631  0.95054  1.0000
  C   C11       1.0  0.18953  0.81631  0.95055  1.0000
  C   C12       1.0  0.68953  0.68369  0.04946  1.0000
  C   C13       1.0  0.87604  0.25511  0.14419  1.0000
  C   C14       1.0  0.37605  0.24489  0.85581  1.0000
  C   C15       1.0  0.12395  0.74489  0.85581  1.0000
  C   C16       1.0  0.62395  0.75511  0.14419  1.0000
  C   C17       1.0  0.90241  0.21411  0.22981  1.0000
  C   C18       1.0  0.40241  0.28589  0.77019  1.0000
  C   C19       1.0  0.09759  0.78589  0.77019  1.0000
  C   C20       1.0  0.59759  0.71411  0.22981  1.0000
  C   C21       1.0  0.87456  0.09679  0.21545  1.0000
  C   C22       1.0  0.37456  0.40321  0.78454  1.0000
  C   C23       1.0  0.12544  0.90321  0.78454  1.0000
  C   C24       1.0  0.62544  0.59679  0.21546  1.0000
  C   C25       1.0  0.81946  0.02409  0.11883  1.0000
  C   C26       1.0  0.31946  0.47591  0.88116  1.0000
  C   C27       1.0  0.18054  0.97591  0.88116  1.0000
  C   C28       1.0  0.68054  0.52410  0.11884  1.0000
  C   C29       1.0  0.95481  0.30039  0.33124  1.0000
  C   C30       1.0  0.45481  0.19961  0.66876  1.0000
  C   C31       1.0  0.04519  0.69961  0.66876  1.0000
  C   C32       1.0  0.54518  0.80039  0.33124  1.0000
  S   S1        1.0  0.91283  0.03496  0.31804  1.0000
  S   S2        1.0  0.41283  0.46504  0.68196  1.0000
  S   S3        1.0  0.08717  0.96504  0.68195  1.0000
  S   S4        1.0  0.58717  0.53496  0.31805  1.0000
  O   O1        1.0  0.69721  0.88222  0.93170  1.0000
  O   O2        1.0  0.19721  0.61778  0.06830  1.0000
  O   O3        1.0  0.30280  0.11778  0.06830  1.0000
  O   O4        1.0  0.80279  0.38222  0.93170  1.0000
  O   O5        1.0  0.67829  0.02774  0.85979  1.0000
  O   O6        1.0  0.17828  0.47226  0.14020  1.0000
  O   O7        1.0  0.32172  0.97226  0.14021  1.0000
  O   O8        1.0  0.82171  0.52774  0.85980  1.0000
  O   O9        1.0  0.10061  0.36087  0.32907  1.0000
  O   O10       1.0  0.60061  0.13914  0.67092  1.0000
  O   O11       1.0  0.89939  0.63913  0.67092  1.0000
  O   O12       1.0  0.39939  0.86087  0.32908  1.0000
  O   O13       1.0  0.84857  0.31249  0.41026  1.0000
  O   O14       1.0  0.34857  0.18751  0.58974  1.0000
  O   O15       1.0  0.15143  0.68751  0.58974  1.0000
  O   O16       1.0  0.65142  0.81249  0.41026  1.0000
  O   O17       1.0  0.73798  0.05856  0.38086  1.0000
  O   O18       1.0  0.23798  0.44143  0.61913  1.0000
  O   O19       1.0  0.26202  0.94143  0.61914  1.0000
  O   O20       1.0  0.76202  0.55857  0.38087  1.0000
  O   O21       1.0  0.07882  0.09375  0.37673  1.0000
  O   O22       1.0  0.57883  0.40625  0.62327  1.0000
  O   O23       1.0  0.92118  0.90625  0.62327  1.0000
  O   O24       1.0  0.42118  0.59375  0.37673  1.0000
  O   O25       1.0  0.94024  0.91185  0.26801  1.0000
  O   O26       1.0  0.44024  0.58815  0.73198  1.0000
  O   O27       1.0  0.05976  0.08815  0.73198  1.0000
  O   O28       1.0  0.55976  0.41185  0.26802  1.0000
  O   O29       1.0  0.52714  0.74307  0.58865  1.0000
  O   O30       1.0  0.02714  0.75693  0.41135  1.0000
  O   O31       1.0  0.47286  0.25693  0.41135  1.0000
  O   O32       1.0  0.97286  0.24307  0.58865  1.0000
