data_image0
_chemical_formula_structural       Ag8H16C32S4O28
_chemical_formula_sum              "Ag8 H16 C32 S4 O28"
_cell_length_a       7.82599
_cell_length_b       11.185
_cell_length_c       12.4973
_cell_angle_alpha    115.682
_cell_angle_beta     90.0001
_cell_angle_gamma    89.9999

_space_group_name_H-M_alt    "P 1"
_space_group_IT_number       1

loop_
  _space_group_symop_operation_xyz
  'x, y, z'

loop_
  _atom_site_type_symbol
  _atom_site_label
  _atom_site_symmetry_multiplicity
  _atom_site_fract_x
  _atom_site_fract_y
  _atom_site_fract_z
  _atom_site_occupancy
  Ag  Ag1       1.0  0.58566  0.17902  0.25951  1.0000
  Ag  Ag2       1.0  0.08566  0.32098  0.24048  1.0000
  Ag  Ag3       1.0  0.41434  0.82098  0.74049  1.0000
  Ag  Ag4       1.0  0.91434  0.67902  0.75952  1.0000
  Ag  Ag5       1.0  0.37354  0.40735  0.49042  1.0000
  Ag  Ag6       1.0  0.87353  0.09265  0.00958  1.0000
  Ag  Ag7       1.0  0.62647  0.59265  0.50957  1.0000
  Ag  Ag8       1.0  0.12647  0.90735  0.99043  1.0000
  H   H1        1.0  0.02683  0.40356  0.70917  1.0000
  H   H2        1.0  0.52683  0.09644  0.79083  1.0000
  H   H3        1.0  0.97317  0.59644  0.29083  1.0000
  H   H4        1.0  0.47316  0.90356  0.20917  1.0000
  H   H5        1.0  0.24499  0.27756  0.87167  1.0000
  H   H6        1.0  0.74499  0.22244  0.62834  1.0000
  H   H7        1.0  0.75501  0.72244  0.12833  1.0000
  H   H8        1.0  0.25501  0.77756  0.37167  1.0000
  H   H9        1.0  0.22972  0.70180  0.07565  1.0000
  H   H10       1.0  0.72972  0.79820  0.42435  1.0000
  H   H11       1.0  0.77028  0.29820  0.92435  1.0000
  H   H12       1.0  0.27028  0.20180  0.57565  1.0000
  H   H13       1.0  0.38576  0.67607  0.23750  1.0000
  H   H14       1.0  0.88576  0.82393  0.26250  1.0000
  H   H15       1.0  0.61424  0.32393  0.76250  1.0000
  H   H16       1.0  0.11424  0.17607  0.73750  1.0000
  C   C1        1.0  0.44886  0.46577  0.26791  1.0000
  C   C2        1.0  0.94886  0.03423  0.23210  1.0000
  C   C3        1.0  0.55115  0.53424  0.73209  1.0000
  C   C4        1.0  0.05114  0.96577  0.76790  1.0000
  C   C5        1.0  0.38360  0.46431  0.15383  1.0000
  C   C6        1.0  0.88360  0.03569  0.34617  1.0000
  C   C7        1.0  0.61640  0.53569  0.84617  1.0000
  C   C8        1.0  0.11640  0.96431  0.65383  1.0000
  C   C9        1.0  0.34689  0.35115  0.04737  1.0000
  C   C10       1.0  0.84689  0.14885  0.45263  1.0000
  C   C11       1.0  0.65311  0.64885  0.95263  1.0000
  C   C12       1.0  0.15311  0.85115  0.54737  1.0000
  C   C13       1.0  0.26806  0.36535  0.95372  1.0000
  C   C14       1.0  0.76806  0.13465  0.54628  1.0000
  C   C15       1.0  0.73194  0.63465  0.04628  1.0000
  C   C16       1.0  0.23194  0.86535  0.45372  1.0000
  C   C17       1.0  0.22075  0.49084  0.96399  1.0000
  C   C18       1.0  0.72075  0.00915  0.53601  1.0000
  C   C19       1.0  0.77925  0.50915  0.03601  1.0000
  C   C20       1.0  0.27925  0.99084  0.46399  1.0000
  C   C21       1.0  0.26268  0.60356  0.06733  1.0000
  C   C22       1.0  0.76269  0.89644  0.43267  1.0000
  C   C23       1.0  0.73731  0.39644  0.93267  1.0000
  C   C24       1.0  0.23731  0.10356  0.56733  1.0000
  C   C25       1.0  0.34662  0.58905  0.15890  1.0000
  C   C26       1.0  0.84662  0.91095  0.34110  1.0000
  C   C27       1.0  0.65339  0.41095  0.84110  1.0000
  C   C28       1.0  0.15338  0.08905  0.65890  1.0000
  C   C29       1.0  0.12772  0.50630  0.86712  1.0000
  C   C30       1.0  0.62772  0.99370  0.63288  1.0000
  C   C31       1.0  0.87228  0.49370  0.13288  1.0000
  C   C32       1.0  0.37228  0.00630  0.36712  1.0000
  S   S1        1.0  0.40749  0.18648  0.02311  1.0000
  S   S2        1.0  0.90749  0.31352  0.47689  1.0000
  S   S3        1.0  0.59251  0.81352  0.97689  1.0000
  S   S4        1.0  0.09251  0.68648  0.52311  1.0000
  O   O1        1.0  0.38207  0.38103  0.29975  1.0000
  O   O2        1.0  0.88208  0.11897  0.20025  1.0000
  O   O3        1.0  0.61793  0.61897  0.70025  1.0000
  O   O4        1.0  0.11792  0.88103  0.79975  1.0000
  O   O5        1.0  0.55392  0.55580  0.32674  1.0000
  O   O6        1.0  0.05392  0.94420  0.17326  1.0000
  O   O7        1.0  0.44608  0.44420  0.67326  1.0000
  O   O8        1.0  0.94608  0.05580  0.82674  1.0000
  O   O9        1.0  0.28185  0.14072  0.08451  1.0000
  O   O10       1.0  0.78185  0.35928  0.41549  1.0000
  O   O11       1.0  0.71815  0.85928  0.91549  1.0000
  O   O12       1.0  0.21815  0.64072  0.58451  1.0000
  O   O13       1.0  0.58171  0.19957  0.07259  1.0000
  O   O14       1.0  0.08171  0.30043  0.42741  1.0000
  O   O15       1.0  0.41829  0.80043  0.92741  1.0000
  O   O16       1.0  0.91829  0.69957  0.57259  1.0000
  O   O17       1.0  0.40262  0.10572  0.89320  1.0000
  O   O18       1.0  0.90262  0.39428  0.60680  1.0000
  O   O19       1.0  0.59738  0.89428  0.10680  1.0000
  O   O20       1.0  0.09738  0.60572  0.39320  1.0000
  O   O21       1.0  0.09495  0.39315  0.77404  1.0000
  O   O22       1.0  0.59495  0.10686  0.72596  1.0000
  O   O23       1.0  0.90504  0.60685  0.22596  1.0000
  O   O24       1.0  0.40504  0.89315  0.27404  1.0000
  O   O25       1.0  0.08303  0.61728  0.87677  1.0000
  O   O26       1.0  0.58303  0.88273  0.62323  1.0000
  O   O27       1.0  0.91697  0.38273  0.12323  1.0000
  O   O28       1.0  0.41697  0.11728  0.37677  1.0000
