data_image0
_chemical_formula_structural       Cu4H28C28N28O4
_chemical_formula_sum              "Cu4 H28 C28 N28 O4"
_cell_length_a       8.09296
_cell_length_b       10.5025
_cell_length_c       11.1453
_cell_angle_alpha    89.9997
_cell_angle_beta     90.0003
_cell_angle_gamma    100.011

_space_group_name_H-M_alt    "P 1"
_space_group_IT_number       1

loop_
  _space_group_symop_operation_xyz
  'x, y, z'

loop_
  _atom_site_type_symbol
  _atom_site_label
  _atom_site_symmetry_multiplicity
  _atom_site_fract_x
  _atom_site_fract_y
  _atom_site_fract_z
  _atom_site_occupancy
  Cu  Cu1       1.0  0.16013  0.38243  0.60007  1.0000
  Cu  Cu2       1.0  0.33987  0.61757  0.10008  1.0000
  Cu  Cu3       1.0  0.83987  0.61757  0.39992  1.0000
  Cu  Cu4       1.0  0.66013  0.38243  0.89992  1.0000
  H   H1        1.0  0.69124  0.13825  0.80556  1.0000
  H   H2        1.0  0.80877  0.86175  0.30556  1.0000
  H   H3        1.0  0.30876  0.86175  0.19444  1.0000
  H   H4        1.0  0.19123  0.13825  0.69444  1.0000
  H   H5        1.0  0.79858  0.04000  0.71739  1.0000
  H   H6        1.0  0.70142  0.96000  0.21740  1.0000
  H   H7        1.0  0.20142  0.96000  0.28261  1.0000
  H   H8        1.0  0.29858  0.04000  0.78261  1.0000
  H   H9        1.0  0.90326  0.60590  0.76184  1.0000
  H   H10       1.0  0.59674  0.39410  0.26185  1.0000
  H   H11       1.0  0.09674  0.39410  0.23816  1.0000
  H   H12       1.0  0.40325  0.60590  0.73816  1.0000
  H   H13       1.0  0.06910  0.82797  0.68869  1.0000
  H   H14       1.0  0.43091  0.17203  0.18869  1.0000
  H   H15       1.0  0.93091  0.17203  0.31131  1.0000
  H   H16       1.0  0.56909  0.82797  0.81131  1.0000
  H   H17       1.0  0.29557  0.94655  0.55582  1.0000
  H   H18       1.0  0.20443  0.05345  0.05582  1.0000
  H   H19       1.0  0.70443  0.05345  0.44418  1.0000
  H   H20       1.0  0.79556  0.94655  0.94418  1.0000
  H   H21       1.0  0.46939  0.81911  0.43368  1.0000
  H   H22       1.0  0.03062  0.18090  0.93368  1.0000
  H   H23       1.0  0.53061  0.18090  0.56632  1.0000
  H   H24       1.0  0.96938  0.81911  0.06632  1.0000
  H   H25       1.0  0.40584  0.57626  0.44490  1.0000
  H   H26       1.0  0.09416  0.42374  0.94491  1.0000
  H   H27       1.0  0.59416  0.42374  0.55509  1.0000
  H   H28       1.0  0.90584  0.57627  0.05509  1.0000
  C   C1        1.0  0.90102  0.22912  0.71985  1.0000
  C   C2        1.0  0.59899  0.77088  0.21985  1.0000
  C   C3        1.0  0.09899  0.77088  0.28015  1.0000
  C   C4        1.0  0.40101  0.22912  0.78015  1.0000
  C   C5        1.0  0.99311  0.56281  0.70992  1.0000
  C   C6        1.0  0.50689  0.43719  0.20993  1.0000
  C   C7        1.0  0.00689  0.43719  0.29008  1.0000
  C   C8        1.0  0.49311  0.56281  0.79008  1.0000
  C   C9        1.0  0.12111  0.64102  0.63783  1.0000
  C   C10       1.0  0.37890  0.35898  0.13783  1.0000
  C   C11       1.0  0.87890  0.35898  0.36217  1.0000
  C   C12       1.0  0.62110  0.64102  0.86217  1.0000
  C   C13       1.0  0.14774  0.77605  0.63467  1.0000
  C   C14       1.0  0.35227  0.22395  0.13468  1.0000
  C   C15       1.0  0.85227  0.22395  0.36533  1.0000
  C   C16       1.0  0.64773  0.77605  0.86532  1.0000
  C   C17       1.0  0.27392  0.84140  0.56108  1.0000
  C   C18       1.0  0.22608  0.15860  0.06108  1.0000
  C   C19       1.0  0.72608  0.15860  0.43892  1.0000
  C   C20       1.0  0.77392  0.84140  0.93892  1.0000
  C   C21       1.0  0.37000  0.77101  0.49198  1.0000
  C   C22       1.0  0.13000  0.22899  0.99198  1.0000
  C   C23       1.0  0.63000  0.22899  0.50802  1.0000
  C   C24       1.0  0.87000  0.77102  0.00802  1.0000
  C   C25       1.0  0.33639  0.63629  0.49796  1.0000
  C   C26       1.0  0.16361  0.36371  0.99797  1.0000
  C   C27       1.0  0.66361  0.36371  0.50203  1.0000
  C   C28       1.0  0.83638  0.63629  0.00204  1.0000
  N   N1        1.0  0.27064  0.32769  0.45740  1.0000
  N   N2        1.0  0.22936  0.67231  0.95741  1.0000
  N   N3        1.0  0.72936  0.67231  0.54260  1.0000
  N   N4        1.0  0.77064  0.32769  0.04260  1.0000
  N   N5        1.0  0.25411  0.21619  0.42811  1.0000
  N   N6        1.0  0.24589  0.78381  0.92812  1.0000
  N   N7        1.0  0.74589  0.78381  0.57189  1.0000
  N   N8        1.0  0.75411  0.21619  0.07189  1.0000
  N   N9        1.0  0.24380  0.10915  0.39526  1.0000
  N   N10       1.0  0.25620  0.89085  0.89526  1.0000
  N   N11       1.0  0.75620  0.89085  0.60474  1.0000
  N   N12       1.0  0.74380  0.10915  0.10475  1.0000
  N   N13       1.0  0.79987  0.12430  0.76373  1.0000
  N   N14       1.0  0.70013  0.87570  0.26373  1.0000
  N   N15       1.0  0.20013  0.87570  0.23627  1.0000
  N   N16       1.0  0.29987  0.12430  0.73627  1.0000
  N   N17       1.0  0.87624  0.34835  0.75790  1.0000
  N   N18       1.0  0.62376  0.65165  0.25791  1.0000
  N   N19       1.0  0.12376  0.65165  0.24209  1.0000
  N   N20       1.0  0.37624  0.34835  0.74209  1.0000
  N   N21       1.0  0.98957  0.43865  0.70428  1.0000
  N   N22       1.0  0.51043  0.56135  0.20428  1.0000
  N   N23       1.0  0.01043  0.56135  0.29572  1.0000
  N   N24       1.0  0.48957  0.43865  0.79572  1.0000
  N   N25       1.0  0.21633  0.57346  0.56927  1.0000
  N   N26       1.0  0.28367  0.42654  0.06927  1.0000
  N   N27       1.0  0.78367  0.42654  0.43073  1.0000
  N   N28       1.0  0.71633  0.57346  0.93073  1.0000
  O   O1        1.0  0.01759  0.21273  0.64458  1.0000
  O   O2        1.0  0.48240  0.78727  0.14458  1.0000
  O   O3        1.0  0.98241  0.78727  0.35542  1.0000
  O   O4        1.0  0.51760  0.21273  0.85542  1.0000
