data_image0
_chemical_formula_structural       CoH20C28N8O12
_chemical_formula_sum              "Co1 H20 C28 N8 O12"
_cell_length_a       6.4179
_cell_length_b       11.0814
_cell_length_c       11.2618
_cell_angle_alpha    99.6648
_cell_angle_beta     107.877
_cell_angle_gamma    90.3029

_space_group_name_H-M_alt    "P 1"
_space_group_IT_number       1

loop_
  _space_group_symop_operation_xyz
  'x, y, z'

loop_
  _atom_site_type_symbol
  _atom_site_label
  _atom_site_symmetry_multiplicity
  _atom_site_fract_x
  _atom_site_fract_y
  _atom_site_fract_z
  _atom_site_occupancy
  Co  Co1       1.0  0.90358  0.49068  0.99774  1.0000
  H   H1        1.0  0.31308  0.61574  0.97281  1.0000
  H   H2        1.0  0.37068  0.38939  0.01642  1.0000
  H   H3        1.0  0.44342  0.82508  0.34037  1.0000
  H   H4        1.0  0.08914  0.16424  0.65800  1.0000
  H   H5        1.0  0.06811  0.66828  0.28430  1.0000
  H   H6        1.0  0.77860  0.32145  0.71306  1.0000
  H   H7        1.0  0.70227  0.72039  0.09092  1.0000
  H   H8        1.0  0.62681  0.26944  0.90930  1.0000
  H   H9        1.0  0.73960  0.82447  0.23223  1.0000
  H   H10       1.0  0.51097  0.17192  0.76225  1.0000
  H   H11       1.0  0.24167  0.91626  0.05806  1.0000
  H   H12       1.0  0.18567  0.08794  0.93869  1.0000
  H   H13       1.0  0.90524  0.90084  0.04862  1.0000
  H   H14       1.0  0.85052  0.07515  0.93124  1.0000
  H   H15       1.0  0.71575  0.81777  0.75373  1.0000
  H   H16       1.0  0.91455  0.19429  0.22162  1.0000
  H   H17       1.0  0.04299  0.84281  0.52594  1.0000
  H   H18       1.0  0.56133  0.14960  0.48454  1.0000
  H   H19       1.0  0.22759  0.53192  0.71376  1.0000
  H   H20       1.0  0.49966  0.47538  0.31409  1.0000
  C   C1        1.0  0.29300  0.65075  0.06418  1.0000
  C   C2        1.0  0.24878  0.34974  0.92762  1.0000
  C   C3        1.0  0.35705  0.75907  0.25690  1.0000
  C   C4        1.0  0.09715  0.23363  0.73957  1.0000
  C   C5        1.0  0.17403  0.68158  0.22841  1.0000
  C   C6        1.0  0.94644  0.31116  0.76841  1.0000
  C   C7        1.0  0.62359  0.79342  0.13709  1.0000
  C   C8        1.0  0.49292  0.20031  0.85655  1.0000
  C   C9        1.0  0.37631  0.95061  0.03056  1.0000
  C   C10       1.0  0.34453  0.04762  0.96286  1.0000
  C   C11       1.0  0.57802  0.89734  0.06276  1.0000
  C   C12       1.0  0.51431  0.09367  0.92690  1.0000
  C   C13       1.0  0.74784  0.94281  0.02520  1.0000
  C   C14       1.0  0.71693  0.03993  0.95911  1.0000
  C   C15       1.0  0.49076  0.66869  0.74369  1.0000
  C   C16       1.0  0.71424  0.34282  0.25964  1.0000
  C   C17       1.0  0.54723  0.77966  0.71495  1.0000
  C   C18       1.0  0.80346  0.22942  0.27347  1.0000
  C   C19       1.0  0.38567  0.84095  0.63865  1.0000
  C   C20       1.0  0.74685  0.16217  0.35407  1.0000
  C   C21       1.0  0.16847  0.79417  0.58580  1.0000
  C   C22       1.0  0.60357  0.20317  0.42159  1.0000
  C   C23       1.0  0.11948  0.68177  0.61398  1.0000
  C   C24       1.0  0.51611  0.31578  0.40359  1.0000
  C   C25       1.0  0.27473  0.61868  0.69319  1.0000
  C   C26       1.0  0.56770  0.38643  0.32405  1.0000
  C   C27       1.0  0.66889  0.60926  0.83090  1.0000
  C   C28       1.0  0.77436  0.41873  0.17559  1.0000
  N   N1        1.0  0.13564  0.61470  0.10739  1.0000
  N   N2        1.0  0.04345  0.38297  0.88630  1.0000
  N   N3        1.0  0.42993  0.73782  0.15213  1.0000
  N   N4        1.0  0.28761  0.25986  0.84088  1.0000
  N   N5        1.0  0.89298  0.62743  0.55778  1.0000
  N   N6        1.0  0.36858  0.36536  0.47474  1.0000
  N   N7        1.0  0.44866  0.96024  0.61569  1.0000
  N   N8        1.0  0.84135  0.04282  0.36695  1.0000
  O   O1        1.0  0.61108  0.52739  0.88641  1.0000
  O   O2        1.0  0.72281  0.52784  0.17896  1.0000
  O   O3        1.0  0.86539  0.64303  0.85124  1.0000
  O   O4        1.0  0.87397  0.36426  0.09943  1.0000
  O   O5        1.0  0.85374  0.52504  0.57903  1.0000
  O   O6        1.0  0.24056  0.44174  0.43060  1.0000
  O   O7        1.0  0.64588  0.99509  0.65542  1.0000
  O   O8        1.0  0.98834  0.01490  0.31913  1.0000
  O   O9        1.0  0.75483  0.68764  0.49245  1.0000
  O   O10       1.0  0.38277  0.32841  0.57497  1.0000
  O   O11       1.0  0.30074  0.02175  0.55962  1.0000
  O   O12       1.0  0.76628  0.97533  0.42393  1.0000
