data_image0
_chemical_formula_structural       La2Co2H32C24N6O24
_chemical_formula_sum              "La2 Co2 H32 C24 N6 O24"
_cell_length_a       8.59262
_cell_length_b       9.72174
_cell_length_c       12.8851
_cell_angle_alpha    67.8285
_cell_angle_beta     81.056
_cell_angle_gamma    65.6755

_space_group_name_H-M_alt    "P 1"
_space_group_IT_number       1

loop_
  _space_group_symop_operation_xyz
  'x, y, z'

loop_
  _atom_site_type_symbol
  _atom_site_label
  _atom_site_symmetry_multiplicity
  _atom_site_fract_x
  _atom_site_fract_y
  _atom_site_fract_z
  _atom_site_occupancy
  La  La1       1.0  0.24995  0.50690  0.98638  1.0000
  La  La2       1.0  0.75005  0.49310  0.01361  1.0000
  Co  Co1       1.0  0.25007  0.66376  0.67247  1.0000
  Co  Co2       1.0  0.74993  0.33625  0.32753  1.0000
  H   H1        1.0  0.08045  0.68940  0.50317  1.0000
  H   H2        1.0  0.41968  0.80736  0.50321  1.0000
  H   H3        1.0  0.91955  0.31060  0.49683  1.0000
  H   H4        1.0  0.58031  0.19264  0.49679  1.0000
  H   H5        1.0  0.64540  0.16822  0.74188  1.0000
  H   H6        1.0  0.85467  0.08994  0.74196  1.0000
  H   H7        1.0  0.35460  0.83178  0.25812  1.0000
  H   H8        1.0  0.14533  0.91005  0.25804  1.0000
  H   H9        1.0  0.96019  0.46776  0.63151  1.0000
  H   H10       1.0  0.54009  0.90057  0.63151  1.0000
  H   H11       1.0  0.03981  0.53224  0.36849  1.0000
  H   H12       1.0  0.45990  0.09943  0.36849  1.0000
  H   H13       1.0  0.87360  0.67049  0.62644  1.0000
  H   H14       1.0  0.62651  0.70288  0.62649  1.0000
  H   H15       1.0  0.12640  0.32951  0.37357  1.0000
  H   H16       1.0  0.37349  0.29712  0.37351  1.0000
  H   H17       1.0  0.29702  0.49879  0.46103  1.0000
  H   H18       1.0  0.20317  0.04020  0.46107  1.0000
  H   H19       1.0  0.70297  0.50122  0.53898  1.0000
  H   H20       1.0  0.79682  0.95980  0.53894  1.0000
  H   H21       1.0  0.20963  0.36320  0.56098  1.0000
  H   H22       1.0  0.29066  0.07581  0.56099  1.0000
  H   H23       1.0  0.79038  0.63681  0.43903  1.0000
  H   H24       1.0  0.70934  0.92418  0.43902  1.0000
  H   H25       1.0  0.69475  0.90429  0.80879  1.0000
  H   H26       1.0  0.80518  0.28687  0.80900  1.0000
  H   H27       1.0  0.30525  0.09571  0.19121  1.0000
  H   H28       1.0  0.19482  0.71313  0.19100  1.0000
  H   H29       1.0  0.64509  0.95522  0.93060  1.0000
  H   H30       1.0  0.85467  0.11398  0.93077  1.0000
  H   H31       1.0  0.35491  0.04478  0.06939  1.0000
  H   H32       1.0  0.14533  0.88602  0.06923  1.0000
  C   C1        1.0  0.01526  0.50625  0.77237  1.0000
  C   C2        1.0  0.48493  0.72125  0.77241  1.0000
  C   C3        1.0  0.98474  0.49376  0.22762  1.0000
  C   C4        1.0  0.51507  0.27875  0.22759  1.0000
  C   C5        1.0  0.42248  0.37960  0.61730  1.0000
  C   C6        1.0  0.07778  0.00309  0.61732  1.0000
  C   C7        1.0  0.57751  0.62041  0.38271  1.0000
  C   C8        1.0  0.92222  0.99691  0.38268  1.0000
  C   C9        1.0  0.98905  0.55913  0.64661  1.0000
  C   C10       1.0  0.51113  0.79416  0.64663  1.0000
  C   C11       1.0  0.01095  0.44088  0.35339  1.0000
  C   C12       1.0  0.48887  0.20584  0.35336  1.0000
  C   C13       1.0  0.25869  0.45643  0.54940  1.0000
  C   C14       1.0  0.24158  0.99417  0.54942  1.0000
  C   C15       1.0  0.74131  0.54358  0.45060  1.0000
  C   C16       1.0  0.75842  0.00583  0.45058  1.0000
  C   C17       1.0  0.90951  0.81076  0.91359  1.0000
  C   C18       1.0  0.59026  0.27554  0.91368  1.0000
  C   C19       1.0  0.09049  0.18924  0.08641  1.0000
  C   C20       1.0  0.40974  0.72446  0.08631  1.0000
  C   C21       1.0  0.74058  0.94278  0.86375  1.0000
  C   C22       1.0  0.75928  0.19339  0.86387  1.0000
  C   C23       1.0  0.25942  0.05722  0.13625  1.0000
  C   C24       1.0  0.24072  0.80661  0.13613  1.0000
  N   N1        1.0  0.12895  0.59421  0.57635  1.0000
  N   N2        1.0  0.37124  0.82941  0.57637  1.0000
  N   N3        1.0  0.87105  0.40580  0.42366  1.0000
  N   N4        1.0  0.62876  0.17059  0.42363  1.0000
  N   N5        1.0  0.74999  0.10096  0.79811  1.0000
  N   N6        1.0  0.25001  0.89903  0.20189  1.0000
  O   O1        1.0  0.13706  0.52733  0.80226  1.0000
  O   O2        1.0  0.36315  0.67024  0.80231  1.0000
  O   O3        1.0  0.86295  0.47268  0.19774  1.0000
  O   O4        1.0  0.63685  0.32977  0.19769  1.0000
  O   O5        1.0  0.91203  0.45194  0.83645  1.0000
  O   O6        1.0  0.58819  0.71148  0.83646  1.0000
  O   O7        1.0  0.08798  0.54806  0.16355  1.0000
  O   O8        1.0  0.41181  0.28852  0.16354  1.0000
  O   O9        1.0  0.45737  0.46790  0.65488  1.0000
  O   O10       1.0  0.04284  0.87724  0.65490  1.0000
  O   O11       1.0  0.54263  0.53212  0.34513  1.0000
  O   O12       1.0  0.95716  0.12275  0.34511  1.0000
  O   O13       1.0  0.51791  0.23491  0.62888  1.0000
  O   O14       1.0  0.98240  0.13621  0.62890  1.0000
  O   O15       1.0  0.48209  0.76510  0.37113  1.0000
  O   O16       1.0  0.01761  0.86378  0.37111  1.0000
  O   O17       1.0  0.90847  0.66822  0.95348  1.0000
  O   O18       1.0  0.59128  0.37820  0.95357  1.0000
  O   O19       1.0  0.09154  0.33177  0.04651  1.0000
  O   O20       1.0  0.40872  0.62180  0.04642  1.0000
  O   O21       1.0  0.04102  0.83621  0.91456  1.0000
  O   O22       1.0  0.45878  0.24911  0.91465  1.0000
  O   O23       1.0  0.95898  0.16379  0.08545  1.0000
  O   O24       1.0  0.54122  0.75089  0.08534  1.0000
