data_image0
_chemical_formula_structural       K8H36C24N4O28
_chemical_formula_sum              "K8 H36 C24 N4 O28"
_cell_length_a       4.87852
_cell_length_b       13.2472
_cell_length_c       18.0102
_cell_angle_alpha    89.9997
_cell_angle_beta     89.9995
_cell_angle_gamma    89.9997

_space_group_name_H-M_alt    "P 1"
_space_group_IT_number       1

loop_
  _space_group_symop_operation_xyz
  'x, y, z'

loop_
  _atom_site_type_symbol
  _atom_site_label
  _atom_site_symmetry_multiplicity
  _atom_site_fract_x
  _atom_site_fract_y
  _atom_site_fract_z
  _atom_site_occupancy
  K   K1        1.0  0.45462  0.18570  0.92303  1.0000
  K   K2        1.0  0.04536  0.81429  0.42303  1.0000
  K   K3        1.0  0.95465  0.31429  0.07696  1.0000
  K   K4        1.0  0.54538  0.68571  0.57697  1.0000
  K   K5        1.0  0.00966  0.66119  0.07400  1.0000
  K   K6        1.0  0.49031  0.33881  0.57400  1.0000
  K   K7        1.0  0.50967  0.83881  0.92600  1.0000
  K   K8        1.0  0.99033  0.16121  0.42600  1.0000
  H   H1        1.0  0.27293  0.99585  0.17041  1.0000
  H   H2        1.0  0.22707  0.00415  0.67041  1.0000
  H   H3        1.0  0.77293  0.50415  0.82959  1.0000
  H   H4        1.0  0.72707  0.49585  0.32959  1.0000
  H   H5        1.0  0.81493  0.89962  0.15778  1.0000
  H   H6        1.0  0.68507  0.10038  0.65778  1.0000
  H   H7        1.0  0.31493  0.60038  0.84222  1.0000
  H   H8        1.0  0.18507  0.39962  0.34222  1.0000
  H   H9        1.0  0.66056  0.96146  0.08186  1.0000
  H   H10       1.0  0.83943  0.03854  0.58186  1.0000
  H   H11       1.0  0.16056  0.53854  0.91814  1.0000
  H   H12       1.0  0.33943  0.46146  0.41814  1.0000
  H   H13       1.0  0.78669  0.10147  0.15300  1.0000
  H   H14       1.0  0.71333  0.89853  0.65299  1.0000
  H   H15       1.0  0.28667  0.39853  0.84701  1.0000
  H   H16       1.0  0.21331  0.60147  0.34700  1.0000
  H   H17       1.0  0.53534  0.14931  0.21592  1.0000
  H   H18       1.0  0.96467  0.85069  0.71592  1.0000
  H   H19       1.0  0.03533  0.35069  0.78408  1.0000
  H   H20       1.0  0.46466  0.64931  0.28408  1.0000
  H   H21       1.0  0.70595  0.99517  0.28481  1.0000
  H   H22       1.0  0.79406  0.00483  0.78481  1.0000
  H   H23       1.0  0.20594  0.50483  0.71519  1.0000
  H   H24       1.0  0.29405  0.49517  0.21519  1.0000
  H   H25       1.0  0.50184  0.88584  0.27006  1.0000
  H   H26       1.0  0.99816  0.11416  0.77006  1.0000
  H   H27       1.0  0.00183  0.61416  0.72994  1.0000
  H   H28       1.0  0.49815  0.38584  0.22994  1.0000
  H   H29       1.0  0.44796  0.20867  0.73587  1.0000
  H   H30       1.0  0.05204  0.79133  0.23587  1.0000
  H   H31       1.0  0.94797  0.29133  0.26413  1.0000
  H   H32       1.0  0.55204  0.70867  0.76413  1.0000
  H   H33       1.0  0.58329  0.30695  0.76290  1.0000
  H   H34       1.0  0.91671  0.69305  0.26290  1.0000
  H   H35       1.0  0.08329  0.19305  0.23710  1.0000
  H   H36       1.0  0.41671  0.80695  0.73710  1.0000
  C   C1        1.0  0.61730  0.92240  0.13425  1.0000
  C   C2        1.0  0.88271  0.07760  0.63425  1.0000
  C   C3        1.0  0.11729  0.57760  0.86575  1.0000
  C   C4        1.0  0.38271  0.42240  0.36575  1.0000
  C   C5        1.0  0.56842  0.10135  0.16721  1.0000
  C   C6        1.0  0.93160  0.89865  0.66721  1.0000
  C   C7        1.0  0.06841  0.39865  0.83279  1.0000
  C   C8        1.0  0.43158  0.60135  0.33279  1.0000
  C   C9        1.0  0.50546  0.96834  0.26526  1.0000
  C   C10       1.0  0.99454  0.03167  0.76526  1.0000
  C   C11       1.0  0.00546  0.53166  0.73474  1.0000
  C   C12       1.0  0.49454  0.46834  0.23474  1.0000
  C   C13       1.0  0.43852  0.83016  0.11887  1.0000
  C   C14       1.0  0.06150  0.16984  0.61887  1.0000
  C   C15       1.0  0.93850  0.66984  0.88113  1.0000
  C   C16       1.0  0.56149  0.33016  0.38113  1.0000
  C   C17       1.0  0.39062  0.14032  0.10294  1.0000
  C   C18       1.0  0.10940  0.85968  0.60294  1.0000
  C   C19       1.0  0.89060  0.35968  0.89706  1.0000
  C   C20       1.0  0.60939  0.64032  0.39706  1.0000
  C   C21       1.0  0.27438  0.01403  0.31186  1.0000
  C   C22       1.0  0.22562  0.98597  0.81186  1.0000
  C   C23       1.0  0.77438  0.48597  0.68814  1.0000
  C   C24       1.0  0.72562  0.51403  0.18814  1.0000
  N   N1        1.0  0.48028  0.99596  0.18503  1.0000
  N   N2        1.0  0.01973  0.00404  0.68503  1.0000
  N   N3        1.0  0.98027  0.50404  0.81497  1.0000
  N   N4        1.0  0.51972  0.49596  0.31497  1.0000
  O   O1        1.0  0.21016  0.82381  0.15221  1.0000
  O   O2        1.0  0.28984  0.17619  0.65221  1.0000
  O   O3        1.0  0.71015  0.67618  0.84779  1.0000
  O   O4        1.0  0.78984  0.32381  0.34779  1.0000
  O   O5        1.0  0.53088  0.76782  0.07172  1.0000
  O   O6        1.0  0.96913  0.23218  0.57171  1.0000
  O   O7        1.0  0.03087  0.73218  0.92828  1.0000
  O   O8        1.0  0.46911  0.26782  0.42829  1.0000
  O   O9        1.0  0.46966  0.22183  0.07286  1.0000
  O   O10       1.0  0.03037  0.77817  0.57286  1.0000
  O   O11       1.0  0.96962  0.27817  0.92714  1.0000
  O   O12       1.0  0.53034  0.72184  0.42714  1.0000
  O   O13       1.0  0.17951  0.08941  0.08647  1.0000
  O   O14       1.0  0.32052  0.91059  0.58647  1.0000
  O   O15       1.0  0.67948  0.41059  0.91353  1.0000
  O   O16       1.0  0.82050  0.58941  0.41353  1.0000
  O   O17       1.0  0.09704  0.06902  0.27912  1.0000
  O   O18       1.0  0.40297  0.93098  0.77912  1.0000
  O   O19       1.0  0.59704  0.43098  0.72088  1.0000
  O   O20       1.0  0.90296  0.56902  0.22087  1.0000
  O   O21       1.0  0.27709  0.99232  0.38017  1.0000
  O   O22       1.0  0.22291  0.00768  0.88016  1.0000
  O   O23       1.0  0.77709  0.50768  0.61984  1.0000
  O   O24       1.0  0.72291  0.49232  0.11983  1.0000
  O   O25       1.0  0.55989  0.23545  0.77700  1.0000
  O   O26       1.0  0.94010  0.76455  0.27700  1.0000
  O   O27       1.0  0.05991  0.26455  0.22300  1.0000
  O   O28       1.0  0.44010  0.73545  0.72300  1.0000
