data_image0
_chemical_formula_structural       Cd4H28C32I8N20
_chemical_formula_sum              "Cd4 H28 C32 I8 N20"
_cell_length_a       6.18587
_cell_length_b       11.478
_cell_length_c       19.3499
_cell_angle_alpha    90.0001
_cell_angle_beta     90.0001
_cell_angle_gamma    90.0002

_space_group_name_H-M_alt    "P 1"
_space_group_IT_number       1

loop_
  _space_group_symop_operation_xyz
  'x, y, z'

loop_
  _atom_site_type_symbol
  _atom_site_label
  _atom_site_symmetry_multiplicity
  _atom_site_fract_x
  _atom_site_fract_y
  _atom_site_fract_z
  _atom_site_occupancy
  Cd  Cd1       1.0  0.55954  0.04199  0.35854  1.0000
  Cd  Cd2       1.0  0.94046  0.95802  0.85854  1.0000
  Cd  Cd3       1.0  0.44046  0.54199  0.14146  1.0000
  Cd  Cd4       1.0  0.05954  0.45801  0.64146  1.0000
  H   H1        1.0  0.94491  0.95514  0.11495  1.0000
  H   H2        1.0  0.55509  0.04486  0.61495  1.0000
  H   H3        1.0  0.05510  0.45514  0.38506  1.0000
  H   H4        1.0  0.44491  0.54486  0.88505  1.0000
  H   H5        1.0  0.66842  0.93731  0.20870  1.0000
  H   H6        1.0  0.83158  0.06269  0.70870  1.0000
  H   H7        1.0  0.33157  0.43731  0.29130  1.0000
  H   H8        1.0  0.16843  0.56269  0.79129  1.0000
  H   H9        1.0  0.96415  0.19732  0.32496  1.0000
  H   H10       1.0  0.53585  0.80268  0.82496  1.0000
  H   H11       1.0  0.03585  0.69731  0.17505  1.0000
  H   H12       1.0  0.46415  0.30268  0.67504  1.0000
  H   H13       1.0  0.25432  0.22367  0.23718  1.0000
  H   H14       1.0  0.24567  0.77633  0.73719  1.0000
  H   H15       1.0  0.74567  0.72367  0.26282  1.0000
  H   H16       1.0  0.75433  0.27633  0.76281  1.0000
  H   H17       1.0  0.41195  0.17597  0.12870  1.0000
  H   H18       1.0  0.08805  0.82403  0.62870  1.0000
  H   H19       1.0  0.58805  0.67597  0.37130  1.0000
  H   H20       1.0  0.91196  0.32403  0.87130  1.0000
  H   H21       1.0  0.57981  0.24395  0.04064  1.0000
  H   H22       1.0  0.92019  0.75605  0.54064  1.0000
  H   H23       1.0  0.42019  0.74395  0.45936  1.0000
  H   H24       1.0  0.07981  0.25605  0.95936  1.0000
  H   H25       1.0  0.45156  0.90656  0.96056  1.0000
  H   H26       1.0  0.04845  0.09344  0.46056  1.0000
  H   H27       1.0  0.54845  0.40657  0.53944  1.0000
  H   H28       1.0  0.95156  0.59344  0.03944  1.0000
  C   C1        1.0  0.95252  0.01101  0.16040  1.0000
  C   C2        1.0  0.54748  0.98899  0.66040  1.0000
  C   C3        1.0  0.04748  0.51101  0.33961  1.0000
  C   C4        1.0  0.45252  0.48899  0.83960  1.0000
  C   C5        1.0  0.79964  0.00078  0.21240  1.0000
  C   C6        1.0  0.70036  0.99922  0.71240  1.0000
  C   C7        1.0  0.20036  0.50078  0.28760  1.0000
  C   C8        1.0  0.29964  0.49922  0.78760  1.0000
  C   C9        1.0  0.96467  0.14523  0.27777  1.0000
  C   C10       1.0  0.53533  0.85477  0.77777  1.0000
  C   C11       1.0  0.03532  0.64523  0.22223  1.0000
  C   C12       1.0  0.46467  0.35477  0.72223  1.0000
  C   C13       1.0  0.12582  0.16027  0.22845  1.0000
  C   C14       1.0  0.37418  0.83973  0.72845  1.0000
  C   C15       1.0  0.87418  0.66026  0.27155  1.0000
  C   C16       1.0  0.62582  0.33973  0.77155  1.0000
  C   C17       1.0  0.11972  0.09290  0.16814  1.0000
  C   C18       1.0  0.38028  0.90710  0.66814  1.0000
  C   C19       1.0  0.88028  0.59290  0.33186  1.0000
  C   C20       1.0  0.61973  0.40710  0.83186  1.0000
  C   C21       1.0  0.28942  0.10954  0.11684  1.0000
  C   C22       1.0  0.21058  0.89046  0.61684  1.0000
  C   C23       1.0  0.71058  0.60954  0.38316  1.0000
  C   C24       1.0  0.78943  0.39046  0.88316  1.0000
  C   C25       1.0  0.59721  0.16437  0.01077  1.0000
  C   C26       1.0  0.90279  0.83563  0.51077  1.0000
  C   C27       1.0  0.40279  0.66437  0.48923  1.0000
  C   C28       1.0  0.09721  0.33563  0.98923  1.0000
  C   C29       1.0  0.52875  0.99058  0.96856  1.0000
  C   C30       1.0  0.97125  0.00942  0.46856  1.0000
  C   C31       1.0  0.47125  0.49058  0.53144  1.0000
  C   C32       1.0  0.02875  0.50942  0.03144  1.0000
  I   I1        1.0  0.41363  0.24969  0.40834  1.0000
  I   I2        1.0  0.08637  0.75031  0.90834  1.0000
  I   I3        1.0  0.58636  0.74969  0.09166  1.0000
  I   I4        1.0  0.91363  0.25031  0.59166  1.0000
  I   I5        1.0  0.30072  0.86034  0.32083  1.0000
  I   I6        1.0  0.19927  0.13966  0.82083  1.0000
  I   I7        1.0  0.69926  0.36034  0.17917  1.0000
  I   I8        1.0  0.80073  0.63967  0.67917  1.0000
  N   N1        1.0  0.80464  0.06731  0.26994  1.0000
  N   N2        1.0  0.69536  0.93269  0.76994  1.0000
  N   N3        1.0  0.19536  0.56731  0.23006  1.0000
  N   N4        1.0  0.30464  0.43269  0.73006  1.0000
  N   N5        1.0  0.29287  0.04674  0.06158  1.0000
  N   N6        1.0  0.20713  0.95326  0.56158  1.0000
  N   N7        1.0  0.70713  0.54675  0.43842  1.0000
  N   N8        1.0  0.79288  0.45326  0.93842  1.0000
  N   N9        1.0  0.46158  0.06923  0.01699  1.0000
  N   N10       1.0  0.03842  0.93077  0.51699  1.0000
  N   N11       1.0  0.53842  0.56923  0.48301  1.0000
  N   N12       1.0  0.96159  0.43077  0.98301  1.0000
  N   N13       1.0  0.73944  0.14459  0.96179  1.0000
  N   N14       1.0  0.76056  0.85541  0.46179  1.0000
  N   N15       1.0  0.26056  0.64459  0.53821  1.0000
  N   N16       1.0  0.23944  0.35541  0.03821  1.0000
  N   N17       1.0  0.69720  0.03442  0.93598  1.0000
  N   N18       1.0  0.80280  0.96558  0.43598  1.0000
  N   N19       1.0  0.30280  0.53443  0.56402  1.0000
  N   N20       1.0  0.19720  0.46557  0.06402  1.0000
