data_image0
_chemical_formula_structural       Hg4H24C20S20I8
_chemical_formula_sum              "Hg4 H24 C20 S20 I8"
_cell_length_a       4.40986
_cell_length_b       15.3633
_cell_length_c       20.5201
_cell_angle_alpha    100.479
_cell_angle_beta     89.9999
_cell_angle_gamma    89.9999

_space_group_name_H-M_alt    "P 1"
_space_group_IT_number       1

loop_
  _space_group_symop_operation_xyz
  'x, y, z'

loop_
  _atom_site_type_symbol
  _atom_site_label
  _atom_site_symmetry_multiplicity
  _atom_site_fract_x
  _atom_site_fract_y
  _atom_site_fract_z
  _atom_site_occupancy
  Hg  Hg1       1.0  0.26320  0.75707  0.91314  1.0000
  Hg  Hg2       1.0  0.76321  0.74293  0.58687  1.0000
  Hg  Hg3       1.0  0.73679  0.24293  0.08686  1.0000
  Hg  Hg4       1.0  0.23679  0.25707  0.41313  1.0000
  H   H1        1.0  0.67380  0.63015  0.13493  1.0000
  H   H2        1.0  0.17380  0.86985  0.36508  1.0000
  H   H3        1.0  0.32620  0.36985  0.86508  1.0000
  H   H4        1.0  0.82620  0.13015  0.63493  1.0000
  H   H5        1.0  0.03592  0.58464  0.14917  1.0000
  H   H6        1.0  0.53592  0.91536  0.35083  1.0000
  H   H7        1.0  0.96408  0.41536  0.85083  1.0000
  H   H8        1.0  0.46408  0.08464  0.64917  1.0000
  H   H9        1.0  0.97753  0.62724  0.07497  1.0000
  H   H10       1.0  0.47754  0.87276  0.42503  1.0000
  H   H11       1.0  0.02246  0.37276  0.92503  1.0000
  H   H12       1.0  0.52246  0.12724  0.57497  1.0000
  H   H13       1.0  0.81578  0.09472  0.23790  1.0000
  H   H14       1.0  0.31578  0.40529  0.26210  1.0000
  H   H15       1.0  0.18422  0.90528  0.76210  1.0000
  H   H16       1.0  0.68422  0.59471  0.73790  1.0000
  H   H17       1.0  0.81664  0.07375  0.32078  1.0000
  H   H18       1.0  0.31664  0.42625  0.17922  1.0000
  H   H19       1.0  0.18336  0.92624  0.67922  1.0000
  H   H20       1.0  0.68336  0.57375  0.82078  1.0000
  H   H21       1.0  0.50389  0.03573  0.26729  1.0000
  H   H22       1.0  0.00389  0.46427  0.23271  1.0000
  H   H23       1.0  0.49611  0.96427  0.73271  1.0000
  H   H24       1.0  0.99611  0.53573  0.76729  1.0000
  C   C1        1.0  0.50666  0.88473  0.05917  1.0000
  C   C2        1.0  0.00665  0.61527  0.44083  1.0000
  C   C3        1.0  0.49336  0.11527  0.94083  1.0000
  C   C4        1.0  0.99334  0.38473  0.55917  1.0000
  C   C5        1.0  0.84601  0.81465  0.13909  1.0000
  C   C6        1.0  0.34601  0.68535  0.36091  1.0000
  C   C7        1.0  0.15400  0.18536  0.86091  1.0000
  C   C8        1.0  0.65399  0.31464  0.63909  1.0000
  C   C9        1.0  0.80276  0.90118  0.16985  1.0000
  C   C10       1.0  0.30276  0.59882  0.33015  1.0000
  C   C11       1.0  0.19725  0.09882  0.83015  1.0000
  C   C12       1.0  0.69725  0.40118  0.66985  1.0000
  C   C13       1.0  0.91888  0.63570  0.12780  1.0000
  C   C14       1.0  0.41888  0.86430  0.37221  1.0000
  C   C15       1.0  0.08112  0.36430  0.87221  1.0000
  C   C16       1.0  0.58112  0.13570  0.62779  1.0000
  C   C17       1.0  0.74926  0.04748  0.26949  1.0000
  C   C18       1.0  0.24926  0.45252  0.23051  1.0000
  C   C19       1.0  0.25074  0.95252  0.73051  1.0000
  C   C20       1.0  0.75074  0.54748  0.76949  1.0000
  S   S1        1.0  0.27688  0.90569  0.99825  1.0000
  S   S2        1.0  0.77687  0.59432  0.50175  1.0000
  S   S3        1.0  0.72313  0.09431  0.00175  1.0000
  S   S4        1.0  0.22312  0.40568  0.49825  1.0000
  S   S5        1.0  0.67294  0.78500  0.06223  1.0000
  S   S6        1.0  0.17294  0.71500  0.43777  1.0000
  S   S7        1.0  0.32707  0.21500  0.93777  1.0000
  S   S8        1.0  0.82705  0.28500  0.56223  1.0000
  S   S9        1.0  0.59358  0.96631  0.12540  1.0000
  S   S10       1.0  0.09357  0.53369  0.37460  1.0000
  S   S11       1.0  0.40643  0.03369  0.87460  1.0000
  S   S12       1.0  0.90643  0.46631  0.62540  1.0000
  S   S13       1.0  0.05974  0.73947  0.17348  1.0000
  S   S14       1.0  0.55975  0.76053  0.32652  1.0000
  S   S15       1.0  0.94027  0.26053  0.82652  1.0000
  S   S16       1.0  0.44026  0.23947  0.67348  1.0000
  S   S17       1.0  0.95460  0.94465  0.24718  1.0000
  S   S18       1.0  0.45460  0.55535  0.25282  1.0000
  S   S19       1.0  0.04540  0.05535  0.75282  1.0000
  S   S20       1.0  0.54540  0.44465  0.74718  1.0000
  I   I1        1.0  0.29268  0.59262  0.94338  1.0000
  I   I2        1.0  0.79269  0.90738  0.55662  1.0000
  I   I3        1.0  0.70731  0.40738  0.05662  1.0000
  I   I4        1.0  0.20731  0.09262  0.44338  1.0000
  I   I5        1.0  0.77776  0.80007  0.83209  1.0000
  I   I6        1.0  0.27778  0.69993  0.66791  1.0000
  I   I7        1.0  0.22222  0.19993  0.16791  1.0000
  I   I8        1.0  0.72222  0.30007  0.33209  1.0000
