data_image0
_chemical_formula_structural       Hg4H24C20S20Cl8
_chemical_formula_sum              "Hg4 H24 C20 S20 Cl8"
_cell_length_a       3.95802
_cell_length_b       11.4438
_cell_length_c       26.3276
_cell_angle_alpha    91.7697
_cell_angle_beta     90.0003
_cell_angle_gamma    89.9999

_space_group_name_H-M_alt    "P 1"
_space_group_IT_number       1

loop_
  _space_group_symop_operation_xyz
  'x, y, z'

loop_
  _atom_site_type_symbol
  _atom_site_label
  _atom_site_symmetry_multiplicity
  _atom_site_fract_x
  _atom_site_fract_y
  _atom_site_fract_z
  _atom_site_occupancy
  Hg  Hg1       1.0  0.26341  0.40053  0.05933  1.0000
  Hg  Hg2       1.0  0.76342  0.09948  0.44067  1.0000
  Hg  Hg3       1.0  0.73659  0.59947  0.94067  1.0000
  Hg  Hg4       1.0  0.23659  0.90053  0.55933  1.0000
  H   H1        1.0  0.42898  0.93247  0.03973  1.0000
  H   H2        1.0  0.92895  0.56754  0.46027  1.0000
  H   H3        1.0  0.57107  0.06753  0.96027  1.0000
  H   H4        1.0  0.07105  0.43246  0.53973  1.0000
  H   H5        1.0  0.73101  0.81869  0.04736  1.0000
  H   H6        1.0  0.23097  0.68132  0.45264  1.0000
  H   H7        1.0  0.26905  0.18131  0.95265  1.0000
  H   H8        1.0  0.76903  0.31868  0.54735  1.0000
  H   H9        1.0  0.82309  0.96226  0.07229  1.0000
  H   H10       1.0  0.32306  0.53775  0.42771  1.0000
  H   H11       1.0  0.17695  0.03774  0.92772  1.0000
  H   H12       1.0  0.67694  0.46225  0.57228  1.0000
  H   H13       1.0  0.48996  0.90736  0.29368  1.0000
  H   H14       1.0  0.98996  0.59264  0.20633  1.0000
  H   H15       1.0  0.51002  0.09264  0.70633  1.0000
  H   H16       1.0  0.01002  0.40736  0.79368  1.0000
  H   H17       1.0  0.13329  0.83168  0.31879  1.0000
  H   H18       1.0  0.63329  0.66832  0.18121  1.0000
  H   H19       1.0  0.86669  0.16832  0.68121  1.0000
  H   H20       1.0  0.36669  0.33168  0.81879  1.0000
  H   H21       1.0  0.11050  0.98626  0.31108  1.0000
  H   H22       1.0  0.61049  0.51375  0.18892  1.0000
  H   H23       1.0  0.88949  0.01375  0.68892  1.0000
  H   H24       1.0  0.38949  0.48626  0.81107  1.0000
  C   C1        1.0  0.18431  0.20532  0.16592  1.0000
  C   C2        1.0  0.68428  0.29468  0.33408  1.0000
  C   C3        1.0  0.81573  0.79468  0.83408  1.0000
  C   C4        1.0  0.31571  0.70532  0.66592  1.0000
  C   C5        1.0  0.31156  0.98334  0.15183  1.0000
  C   C6        1.0  0.81154  0.51667  0.34818  1.0000
  C   C7        1.0  0.68846  0.01666  0.84817  1.0000
  C   C8        1.0  0.18845  0.48333  0.65183  1.0000
  C   C9        1.0  0.16217  0.99261  0.19899  1.0000
  C   C10       1.0  0.66215  0.50738  0.30101  1.0000
  C   C11       1.0  0.83784  0.00739  0.80101  1.0000
  C   C12       1.0  0.33782  0.49261  0.69898  1.0000
  C   C13       1.0  0.62169  0.89782  0.06519  1.0000
  C   C14       1.0  0.12168  0.60219  0.43481  1.0000
  C   C15       1.0  0.37834  0.10218  0.93481  1.0000
  C   C16       1.0  0.87833  0.39781  0.56519  1.0000
  C   C17       1.0  0.21362  0.90399  0.29531  1.0000
  C   C18       1.0  0.71361  0.59600  0.20470  1.0000
  C   C19       1.0  0.78636  0.09601  0.70470  1.0000
  C   C20       1.0  0.28635  0.40400  0.79530  1.0000
  S   S1        1.0  0.15229  0.34999  0.16101  1.0000
  S   S2        1.0  0.65225  0.15001  0.33899  1.0000
  S   S3        1.0  0.84775  0.65001  0.83899  1.0000
  S   S4        1.0  0.34773  0.84999  0.66100  1.0000
  S   S5        1.0  0.35768  0.11323  0.11996  1.0000
  S   S6        1.0  0.85764  0.38677  0.38004  1.0000
  S   S7        1.0  0.64237  0.88676  0.88004  1.0000
  S   S8        1.0  0.14235  0.61323  0.61995  1.0000
  S   S9        1.0  0.04491  0.13408  0.21844  1.0000
  S   S10       1.0  0.54489  0.36592  0.28156  1.0000
  S   S11       1.0  0.95512  0.86592  0.78156  1.0000
  S   S12       1.0  0.45509  0.63408  0.71844  1.0000
  S   S13       1.0  0.43628  0.85081  0.12364  1.0000
  S   S14       1.0  0.93624  0.64919  0.37636  1.0000
  S   S15       1.0  0.56375  0.14918  0.87637  1.0000
  S   S16       1.0  0.06374  0.35081  0.62363  1.0000
  S   S17       1.0  0.04467  0.87087  0.23277  1.0000
  S   S18       1.0  0.54466  0.62914  0.26723  1.0000
  S   S19       1.0  0.95533  0.12914  0.76723  1.0000
  S   S20       1.0  0.45530  0.37086  0.73277  1.0000
  Cl  Cl1       1.0  0.66061  0.56106  0.06632  1.0000
  Cl  Cl2       1.0  0.16062  0.93894  0.43368  1.0000
  Cl  Cl3       1.0  0.33938  0.43894  0.93367  1.0000
  Cl  Cl4       1.0  0.83937  0.06106  0.56632  1.0000
  Cl  Cl5       1.0  0.86340  0.25360  0.02816  1.0000
  Cl  Cl6       1.0  0.36340  0.24640  0.47184  1.0000
  Cl  Cl7       1.0  0.13660  0.74640  0.97184  1.0000
  Cl  Cl8       1.0  0.63660  0.75360  0.52816  1.0000
