data_image0
_chemical_formula_structural       Hg4H24C20S20Br8
_chemical_formula_sum              "Hg4 H24 C20 S20 Br8"
_cell_length_a       4.06778
_cell_length_b       13.2233
_cell_length_c       24.6987
_cell_angle_alpha    75.5628
_cell_angle_beta     85.2518
_cell_angle_gamma    81.0468

_space_group_name_H-M_alt    "P 1"
_space_group_IT_number       1

loop_
  _space_group_symop_operation_xyz
  'x, y, z'

loop_
  _atom_site_type_symbol
  _atom_site_label
  _atom_site_symmetry_multiplicity
  _atom_site_fract_x
  _atom_site_fract_y
  _atom_site_fract_z
  _atom_site_occupancy
  Hg  Hg1       1.0  0.99091  0.66595  0.08943  1.0000
  Hg  Hg2       1.0  0.74216  0.83446  0.41040  1.0000
  Hg  Hg3       1.0  0.00903  0.33405  0.91057  1.0000
  Hg  Hg4       1.0  0.25801  0.16557  0.58960  1.0000
  H   H1        1.0  0.62138  0.63368  0.83882  1.0000
  H   H2        1.0  0.09302  0.86652  0.66119  1.0000
  H   H3        1.0  0.37860  0.36633  0.16117  1.0000
  H   H4        1.0  0.90702  0.13347  0.33881  1.0000
  H   H5        1.0  0.01087  0.57917  0.87240  1.0000
  H   H6        1.0  0.46129  0.92097  0.62773  1.0000
  H   H7        1.0  0.98909  0.42082  0.12760  1.0000
  H   H8        1.0  0.53874  0.07903  0.37227  1.0000
  H   H9        1.0  0.97418  0.58269  0.80019  1.0000
  H   H10       1.0  0.35538  0.91719  0.69995  1.0000
  H   H11       1.0  0.02578  0.41730  0.19981  1.0000
  H   H12       1.0  0.64465  0.08280  0.30005  1.0000
  H   H13       1.0  0.14120  0.07223  0.84672  1.0000
  H   H14       1.0  0.06237  0.42775  0.65309  1.0000
  H   H15       1.0  0.85878  0.92776  0.15328  1.0000
  H   H16       1.0  0.93759  0.57226  0.34691  1.0000
  H   H17       1.0  0.21193  0.13728  0.77512  1.0000
  H   H18       1.0  0.12688  0.36267  0.72469  1.0000
  H   H19       1.0  0.78810  0.86271  0.22489  1.0000
  H   H20       1.0  0.87308  0.63734  0.27531  1.0000
  H   H21       1.0  0.49905  0.14091  0.82536  1.0000
  H   H22       1.0  0.46817  0.35895  0.67443  1.0000
  H   H23       1.0  0.50094  0.85908  0.17464  1.0000
  H   H24       1.0  0.53178  0.64106  0.32557  1.0000
  C   C1        1.0  0.91042  0.85521  0.96197  1.0000
  C   C2        1.0  0.72746  0.64485  0.53791  1.0000
  C   C3        1.0  0.08955  0.14477  0.03803  1.0000
  C   C4        1.0  0.27253  0.35515  0.46208  1.0000
  C   C5        1.0  0.91665  0.80864  0.86565  1.0000
  C   C6        1.0  0.59069  0.69125  0.63433  1.0000
  C   C7        1.0  0.08333  0.19135  0.13435  1.0000
  C   C8        1.0  0.40937  0.30875  0.36567  1.0000
  C   C9        1.0  0.72782  0.90666  0.85892  1.0000
  C   C10       1.0  0.49393  0.59326  0.64101  1.0000
  C   C11       1.0  0.27219  0.09331  0.14108  1.0000
  C   C12       1.0  0.50610  0.40672  0.35899  1.0000
  C   C13       1.0  0.89369  0.62376  0.83353  1.0000
  C   C14       1.0  0.35004  0.87628  0.66653  1.0000
  C   C15       1.0  0.10629  0.37623  0.16647  1.0000
  C   C16       1.0  0.65001  0.12371  0.33346  1.0000
  C   C17       1.0  0.33345  0.09261  0.81360  1.0000
  C   C18       1.0  0.24203  0.40733  0.68621  1.0000
  C   C19       1.0  0.66655  0.90738  0.18640  1.0000
  C   C20       1.0  0.75793  0.59268  0.31379  1.0000
  S   S1        1.0  0.96345  0.86182  0.02768  1.0000
  S   S2        1.0  0.85269  0.63847  0.47217  1.0000
  S   S3        1.0  0.03655  0.13816  0.97232  1.0000
  S   S4        1.0  0.14726  0.36155  0.52782  1.0000
  S   S5        1.0  0.07688  0.75491  0.93153  1.0000
  S   S6        1.0  0.76263  0.74500  0.56845  1.0000
  S   S7        1.0  0.92312  0.24506  0.06847  1.0000
  S   S8        1.0  0.23739  0.25500  0.43155  1.0000
  S   S9        1.0  0.67959  0.95886  0.91757  1.0000
  S   S10       1.0  0.55675  0.54119  0.58232  1.0000
  S   S11       1.0  0.32038  0.04112  0.08244  1.0000
  S   S12       1.0  0.44326  0.45881  0.41768  1.0000
  S   S13       1.0  0.03584  0.75133  0.80957  1.0000
  S   S14       1.0  0.59665  0.74856  0.69037  1.0000
  S   S15       1.0  0.96419  0.24866  0.19043  1.0000
  S   S16       1.0  0.40341  0.25145  0.30962  1.0000
  S   S17       1.0  0.56308  0.97649  0.79567  1.0000
  S   S18       1.0  0.33630  0.52333  0.70422  1.0000
  S   S19       1.0  0.43691  0.02350  0.20434  1.0000
  S   S20       1.0  0.66369  0.47668  0.29578  1.0000
  Br  Br1       1.0  0.28045  0.67035  0.17647  1.0000
  Br  Br2       1.0  0.12522  0.83012  0.32349  1.0000
  Br  Br3       1.0  0.71942  0.32970  0.82354  1.0000
  Br  Br4       1.0  0.87485  0.16993  0.67650  1.0000
  Br  Br5       1.0  0.64528  0.56896  0.04187  1.0000
  Br  Br6       1.0  0.24940  0.93043  0.45824  1.0000
  Br  Br7       1.0  0.35466  0.43104  0.95813  1.0000
  Br  Br8       1.0  0.75071  0.06959  0.54174  1.0000
