data_image0
_chemical_formula_structural       Cd4H20C20N12O20
_chemical_formula_sum              "Cd4 H20 C20 N12 O20"
_cell_length_a       7.19737
_cell_length_b       10.0139
_cell_length_c       11.6305
_cell_angle_alpha    90
_cell_angle_beta     90.0002
_cell_angle_gamma    106.723

_space_group_name_H-M_alt    "P 1"
_space_group_IT_number       1

loop_
  _space_group_symop_operation_xyz
  'x, y, z'

loop_
  _atom_site_type_symbol
  _atom_site_label
  _atom_site_symmetry_multiplicity
  _atom_site_fract_x
  _atom_site_fract_y
  _atom_site_fract_z
  _atom_site_occupancy
  Cd  Cd1       1.0  0.35002  0.87331  0.38177  1.0000
  Cd  Cd2       1.0  0.14998  0.62669  0.88177  1.0000
  Cd  Cd3       1.0  0.64998  0.12669  0.61823  1.0000
  Cd  Cd4       1.0  0.85002  0.37331  0.11823  1.0000
  H   H1        1.0  0.73781  0.49277  0.65186  1.0000
  H   H2        1.0  0.76219  0.00723  0.15186  1.0000
  H   H3        1.0  0.26219  0.50723  0.34814  1.0000
  H   H4        1.0  0.23781  0.99277  0.84814  1.0000
  H   H5        1.0  0.65417  0.50672  0.44235  1.0000
  H   H6        1.0  0.84583  0.99328  0.94235  1.0000
  H   H7        1.0  0.34583  0.49328  0.55765  1.0000
  H   H8        1.0  0.15417  0.00672  0.05765  1.0000
  H   H9        1.0  0.83909  0.60824  0.34730  1.0000
  H   H10       1.0  0.66091  0.89176  0.84730  1.0000
  H   H11       1.0  0.16091  0.39176  0.65270  1.0000
  H   H12       1.0  0.33909  0.10824  0.15269  1.0000
  H   H13       1.0  0.99914  0.94074  0.38441  1.0000
  H   H14       1.0  0.50086  0.55927  0.88441  1.0000
  H   H15       1.0  0.00086  0.05926  0.61559  1.0000
  H   H16       1.0  0.49914  0.44074  0.11559  1.0000
  H   H17       1.0  0.16758  0.06586  0.43366  1.0000
  H   H18       1.0  0.33242  0.43414  0.93366  1.0000
  H   H19       1.0  0.83242  0.93414  0.56634  1.0000
  H   H20       1.0  0.66758  0.56586  0.06634  1.0000
  C   C1        1.0  0.14853  0.72113  0.62125  1.0000
  C   C2        1.0  0.35147  0.77886  0.12125  1.0000
  C   C3        1.0  0.85147  0.27886  0.37875  1.0000
  C   C4        1.0  0.64852  0.22114  0.87875  1.0000
  C   C5        1.0  0.34168  0.81191  0.65797  1.0000
  C   C6        1.0  0.15832  0.68808  0.15796  1.0000
  C   C7        1.0  0.65832  0.18808  0.34203  1.0000
  C   C8        1.0  0.84168  0.31192  0.84204  1.0000
  C   C9        1.0  0.86940  0.57355  0.62886  1.0000
  C   C10       1.0  0.63061  0.92645  0.12886  1.0000
  C   C11       1.0  0.13060  0.42645  0.37114  1.0000
  C   C12       1.0  0.36939  0.07355  0.87114  1.0000
  C   C13       1.0  0.76010  0.60836  0.42826  1.0000
  C   C14       1.0  0.73990  0.89164  0.92826  1.0000
  C   C15       1.0  0.23990  0.39164  0.57174  1.0000
  C   C16       1.0  0.26010  0.10836  0.07174  1.0000
  C   C17       1.0  0.66045  0.72477  0.42145  1.0000
  C   C18       1.0  0.83955  0.77523  0.92145  1.0000
  C   C19       1.0  0.33955  0.27523  0.57855  1.0000
  C   C20       1.0  0.16045  0.22477  0.07855  1.0000
  N   N1        1.0  0.07577  0.72564  0.51675  1.0000
  N   N2        1.0  0.42423  0.77436  0.01675  1.0000
  N   N3        1.0  0.92423  0.27436  0.48325  1.0000
  N   N4        1.0  0.57577  0.22564  0.98325  1.0000
  N   N5        1.0  0.89854  0.63107  0.52250  1.0000
  N   N6        1.0  0.60146  0.86893  0.02250  1.0000
  N   N7        1.0  0.10146  0.36893  0.47750  1.0000
  N   N8        1.0  0.39854  0.13107  0.97750  1.0000
  N   N9        1.0  0.02668  0.62807  0.69255  1.0000
  N   N10       1.0  0.47333  0.87193  0.19255  1.0000
  N   N11       1.0  0.97333  0.37193  0.30745  1.0000
  N   N12       1.0  0.52668  0.12807  0.80745  1.0000
  O   O1        1.0  0.47786  0.68478  0.40579  1.0000
  O   O2        1.0  0.02214  0.81522  0.90579  1.0000
  O   O3        1.0  0.52214  0.31522  0.59421  1.0000
  O   O4        1.0  0.97786  0.18478  0.09420  1.0000
  O   O5        1.0  0.76309  0.85024  0.42970  1.0000
  O   O6        1.0  0.73691  0.64976  0.92970  1.0000
  O   O7        1.0  0.23691  0.14976  0.57030  1.0000
  O   O8        1.0  0.26309  0.35024  0.07030  1.0000
  O   O9        1.0  0.39630  0.79484  0.75818  1.0000
  O   O10       1.0  0.10370  0.70516  0.25819  1.0000
  O   O11       1.0  0.60371  0.20516  0.24182  1.0000
  O   O12       1.0  0.89630  0.29484  0.74181  1.0000
  O   O13       1.0  0.13082  0.00308  0.36643  1.0000
  O   O14       1.0  0.36918  0.49692  0.86643  1.0000
  O   O15       1.0  0.86918  0.99692  0.63357  1.0000
  O   O16       1.0  0.63082  0.50308  0.13357  1.0000
  O   O17       1.0  0.43314  0.90131  0.58406  1.0000
  O   O18       1.0  0.06686  0.59869  0.08406  1.0000
  O   O19       1.0  0.56686  0.09869  0.41595  1.0000
  O   O20       1.0  0.93314  0.40131  0.91594  1.0000
