data_image0
_chemical_formula_structural       Ba2H18C10N6O14
_chemical_formula_sum              "Ba2 H18 C10 N6 O14"
_cell_length_a       6.70582
_cell_length_b       7.64042
_cell_length_c       10.7082
_cell_angle_alpha    74.1287
_cell_angle_beta     79.6752
_cell_angle_gamma    72.7276

_space_group_name_H-M_alt    "P 1"
_space_group_IT_number       1

loop_
  _space_group_symop_operation_xyz
  'x, y, z'

loop_
  _atom_site_type_symbol
  _atom_site_label
  _atom_site_symmetry_multiplicity
  _atom_site_fract_x
  _atom_site_fract_y
  _atom_site_fract_z
  _atom_site_occupancy
  Ba  Ba1       1.0  0.24023  0.42492  0.15358  1.0000
  Ba  Ba2       1.0  0.75977  0.57508  0.84642  1.0000
  H   H1        1.0  0.84190  0.18521  0.28943  1.0000
  H   H2        1.0  0.15810  0.81479  0.71057  1.0000
  H   H3        1.0  0.86049  0.67706  0.39971  1.0000
  H   H4        1.0  0.13951  0.32294  0.60029  1.0000
  H   H5        1.0  0.76935  0.89119  0.45314  1.0000
  H   H6        1.0  0.23065  0.10881  0.54686  1.0000
  H   H7        1.0  0.58793  0.39370  0.39185  1.0000
  H   H8        1.0  0.41207  0.60631  0.60815  1.0000
  H   H9        1.0  0.76928  0.72482  0.09805  1.0000
  H   H10       1.0  0.23073  0.27518  0.90195  1.0000
  H   H11       1.0  0.51064  0.00555  0.23987  1.0000
  H   H12       1.0  0.48936  0.99445  0.76013  1.0000
  H   H13       1.0  0.42351  0.58929  0.35516  1.0000
  H   H14       1.0  0.57648  0.41071  0.64484  1.0000
  H   H15       1.0  0.71127  0.54377  0.18645  1.0000
  H   H16       1.0  0.28873  0.45623  0.81355  1.0000
  H   H17       1.0  0.35622  0.95371  0.36602  1.0000
  H   H18       1.0  0.64378  0.04629  0.63398  1.0000
  C   C1        1.0  0.31053  0.90346  0.98803  1.0000
  C   C2        1.0  0.68947  0.09654  0.01197  1.0000
  C   C3        1.0  0.16788  0.94355  0.10677  1.0000
  C   C4        1.0  0.83211  0.05645  0.89322  1.0000
  C   C5        1.0  0.94954  0.08327  0.23930  1.0000
  C   C6        1.0  0.05046  0.91673  0.76069  1.0000
  C   C7        1.0  0.90809  0.79557  0.41344  1.0000
  C   C8        1.0  0.09191  0.20443  0.58656  1.0000
  C   C9        1.0  0.07310  0.71543  0.51128  1.0000
  C   C10       1.0  0.92690  0.28457  0.48872  1.0000
  N   N1        1.0  0.12369  0.80403  0.20446  1.0000
  N   N2        1.0  0.87631  0.19597  0.79554  1.0000
  N   N3        1.0  0.06407  0.11917  0.12493  1.0000
  N   N4        1.0  0.93593  0.88083  0.87507  1.0000
  N   N5        1.0  0.98469  0.89598  0.28798  1.0000
  N   N6        1.0  0.01531  0.10402  0.71202  1.0000
  O   O1        1.0  0.38882  0.73126  0.98482  1.0000
  O   O2        1.0  0.61118  0.26874  0.01518  1.0000
  O   O3        1.0  0.33959  0.04429  0.89822  1.0000
  O   O4        1.0  0.66041  0.95571  0.10178  1.0000
  O   O5        1.0  0.01357  0.62193  0.62039  1.0000
  O   O6        1.0  0.98643  0.37807  0.37961  1.0000
  O   O7        1.0  0.50821  0.48166  0.31878  1.0000
  O   O8        1.0  0.49179  0.51834  0.68122  1.0000
  O   O9        1.0  0.25563  0.74515  0.47847  1.0000
  O   O10       1.0  0.74437  0.25485  0.52153  1.0000
  O   O11       1.0  0.81018  0.58452  0.11094  1.0000
  O   O12       1.0  0.18982  0.41548  0.88906  1.0000
  O   O13       1.0  0.41830  0.05584  0.31331  1.0000
  O   O14       1.0  0.58169  0.94416  0.68669  1.0000
