data_image0
_chemical_formula_structural       Sr4H28C20N12O24
_chemical_formula_sum              "Sr4 H28 C20 N12 O24"
_cell_length_a       6.9542
_cell_length_b       10.5357
_cell_length_c       12.1782
_cell_angle_alpha    90.0002
_cell_angle_beta     95.7728
_cell_angle_gamma    90

_space_group_name_H-M_alt    "P 1"
_space_group_IT_number       1

loop_
  _space_group_symop_operation_xyz
  'x, y, z'

loop_
  _atom_site_type_symbol
  _atom_site_label
  _atom_site_symmetry_multiplicity
  _atom_site_fract_x
  _atom_site_fract_y
  _atom_site_fract_z
  _atom_site_occupancy
  Sr  Sr1       1.0  0.25002  0.38982  0.01969  1.0000
  Sr  Sr2       1.0  0.74998  0.88982  0.48031  1.0000
  Sr  Sr3       1.0  0.74998  0.61018  0.98031  1.0000
  Sr  Sr4       1.0  0.25002  0.11018  0.51969  1.0000
  H   H1        1.0  0.23751  0.76787  0.32304  1.0000
  H   H2        1.0  0.76250  0.26787  0.17696  1.0000
  H   H3        1.0  0.76249  0.23212  0.67696  1.0000
  H   H4        1.0  0.23750  0.73213  0.82304  1.0000
  H   H5        1.0  0.42907  0.80141  0.15272  1.0000
  H   H6        1.0  0.57093  0.30141  0.34728  1.0000
  H   H7        1.0  0.57093  0.19859  0.84728  1.0000
  H   H8        1.0  0.42907  0.69859  0.65272  1.0000
  H   H9        1.0  0.30844  0.87661  0.03375  1.0000
  H   H10       1.0  0.69156  0.37661  0.46624  1.0000
  H   H11       1.0  0.69156  0.12339  0.96625  1.0000
  H   H12       1.0  0.30844  0.62339  0.53376  1.0000
  H   H13       1.0  0.40128  0.10807  0.08786  1.0000
  H   H14       1.0  0.59872  0.60807  0.41214  1.0000
  H   H15       1.0  0.59872  0.89193  0.91214  1.0000
  H   H16       1.0  0.40128  0.39193  0.58786  1.0000
  H   H17       1.0  0.24004  0.35219  0.73887  1.0000
  H   H18       1.0  0.75995  0.85219  0.76113  1.0000
  H   H19       1.0  0.75996  0.64781  0.26113  1.0000
  H   H20       1.0  0.24005  0.14781  0.23887  1.0000
  H   H21       1.0  0.18811  0.10283  0.02329  1.0000
  H   H22       1.0  0.81189  0.60282  0.47671  1.0000
  H   H23       1.0  0.81189  0.89717  0.97671  1.0000
  H   H24       1.0  0.18811  0.39718  0.52329  1.0000
  H   H25       1.0  0.40692  0.43286  0.79900  1.0000
  H   H26       1.0  0.59308  0.93287  0.70100  1.0000
  H   H27       1.0  0.59308  0.56714  0.20100  1.0000
  H   H28       1.0  0.40692  0.06713  0.29900  1.0000
  C   C1        1.0  0.12667  0.81915  0.27192  1.0000
  C   C2        1.0  0.87334  0.31915  0.22808  1.0000
  C   C3        1.0  0.87333  0.18085  0.72808  1.0000
  C   C4        1.0  0.12666  0.68085  0.77192  1.0000
  C   C5        1.0  0.87833  0.92110  0.20756  1.0000
  C   C6        1.0  0.12167  0.42110  0.29244  1.0000
  C   C7        1.0  0.12167  0.07890  0.79244  1.0000
  C   C8        1.0  0.87833  0.57890  0.70756  1.0000
  C   C9        1.0  0.29267  0.80658  0.09909  1.0000
  C   C10       1.0  0.70733  0.30658  0.40091  1.0000
  C   C11       1.0  0.70733  0.19342  0.90091  1.0000
  C   C12       1.0  0.29267  0.69342  0.59909  1.0000
  C   C13       1.0  0.25486  0.67638  0.04674  1.0000
  C   C14       1.0  0.74514  0.17638  0.45325  1.0000
  C   C15       1.0  0.74514  0.32362  0.95326  1.0000
  C   C16       1.0  0.25486  0.82362  0.54674  1.0000
  C   C17       1.0  0.68549  0.98502  0.20286  1.0000
  C   C18       1.0  0.31451  0.48503  0.29714  1.0000
  C   C19       1.0  0.31451  0.01498  0.79714  1.0000
  C   C20       1.0  0.68549  0.51497  0.70285  1.0000
  N   N1        1.0  0.14160  0.84666  0.16486  1.0000
  N   N2        1.0  0.85841  0.34666  0.33514  1.0000
  N   N3        1.0  0.85841  0.15334  0.83514  1.0000
  N   N4        1.0  0.14159  0.65334  0.66486  1.0000
  N   N5        1.0  0.96162  0.86486  0.30177  1.0000
  N   N6        1.0  0.03839  0.36486  0.19823  1.0000
  N   N7        1.0  0.03838  0.13514  0.69823  1.0000
  N   N8        1.0  0.96161  0.63514  0.80177  1.0000
  N   N9        1.0  0.98322  0.91133  0.12180  1.0000
  N   N10       1.0  0.01678  0.41134  0.37820  1.0000
  N   N11       1.0  0.01678  0.08867  0.87820  1.0000
  N   N12       1.0  0.98322  0.58866  0.62180  1.0000
  O   O1        1.0  0.38827  0.62880  0.99578  1.0000
  O   O2        1.0  0.61174  0.12880  0.50422  1.0000
  O   O3        1.0  0.61173  0.37120  0.00422  1.0000
  O   O4        1.0  0.38827  0.87120  0.49578  1.0000
  O   O5        1.0  0.09629  0.62085  0.05732  1.0000
  O   O6        1.0  0.90371  0.12085  0.44267  1.0000
  O   O7        1.0  0.90371  0.37915  0.94268  1.0000
  O   O8        1.0  0.09629  0.87915  0.55732  1.0000
  O   O9        1.0  0.62717  0.04792  0.11770  1.0000
  O   O10       1.0  0.37283  0.54792  0.38231  1.0000
  O   O11       1.0  0.37283  0.95208  0.88230  1.0000
  O   O12       1.0  0.62717  0.45208  0.61769  1.0000
  O   O13       1.0  0.59426  0.96899  0.28791  1.0000
  O   O14       1.0  0.40574  0.46900  0.21209  1.0000
  O   O15       1.0  0.40574  0.03101  0.71209  1.0000
  O   O16       1.0  0.59426  0.53100  0.78791  1.0000
  O   O17       1.0  0.29917  0.37362  0.81310  1.0000
  O   O18       1.0  0.70083  0.87362  0.68690  1.0000
  O   O19       1.0  0.70083  0.62638  0.18690  1.0000
  O   O20       1.0  0.29917  0.12638  0.31310  1.0000
  O   O21       1.0  0.27407  0.15346  0.07556  1.0000
  O   O22       1.0  0.72593  0.65346  0.42444  1.0000
  O   O23       1.0  0.72593  0.84654  0.92444  1.0000
  O   O24       1.0  0.27407  0.34654  0.57556  1.0000
