data_image0
_chemical_formula_structural       Mn2H14C10N6O12
_chemical_formula_sum              "Mn2 H14 C10 N6 O12"
_cell_length_a       4.76308
_cell_length_b       6.70962
_cell_length_c       13.8674
_cell_angle_alpha    98.589
_cell_angle_beta     97.8452
_cell_angle_gamma    102.03

_space_group_name_H-M_alt    "P 1"
_space_group_IT_number       1

loop_
  _space_group_symop_operation_xyz
  'x, y, z'

loop_
  _atom_site_type_symbol
  _atom_site_label
  _atom_site_symmetry_multiplicity
  _atom_site_fract_x
  _atom_site_fract_y
  _atom_site_fract_z
  _atom_site_occupancy
  Mn  Mn1       1.0  0.50000  0.99999  0.00000  1.0000
  Mn  Mn2       1.0  0.00001  0.49999  0.50000  1.0000
  H   H1        1.0  0.53885  0.41938  0.13320  1.0000
  H   H2        1.0  0.46115  0.58063  0.86680  1.0000
  H   H3        1.0  0.38108  0.60511  0.08233  1.0000
  H   H4        1.0  0.61892  0.39489  0.91767  1.0000
  H   H5        1.0  0.33171  0.29204  0.29090  1.0000
  H   H6        1.0  0.66831  0.70798  0.70910  1.0000
  H   H7        1.0  0.34184  0.87859  0.59795  1.0000
  H   H8        1.0  0.65815  0.12140  0.40205  1.0000
  H   H9        1.0  0.58468  0.99030  0.20718  1.0000
  H   H10       1.0  0.41531  0.00970  0.79282  1.0000
  H   H11       1.0  0.53335  0.78520  0.52020  1.0000
  H   H12       1.0  0.46665  0.21479  0.47980  1.0000
  H   H13       1.0  0.25247  0.90935  0.16655  1.0000
  H   H14       1.0  0.74753  0.09065  0.83345  1.0000
  C   C1        1.0  0.01107  0.66659  0.31111  1.0000
  C   C2        1.0  0.98893  0.33341  0.68889  1.0000
  C   C3        1.0  0.23128  0.42184  0.28536  1.0000
  C   C4        1.0  0.76875  0.57817  0.71464  1.0000
  C   C5        1.0  0.33456  0.46823  0.11718  1.0000
  C   C6        1.0  0.66544  0.53178  0.88282  1.0000
  C   C7        1.0  0.84666  0.80129  0.36497  1.0000
  C   C8        1.0  0.15332  0.19870  0.63503  1.0000
  C   C9        1.0  0.10955  0.29480  0.04500  1.0000
  C   C10       1.0  0.89045  0.70520  0.95500  1.0000
  N   N1        1.0  0.09460  0.50911  0.35148  1.0000
  N   N2        1.0  0.90541  0.49089  0.64852  1.0000
  N   N3        1.0  0.23218  0.52438  0.20886  1.0000
  N   N4        1.0  0.76782  0.47563  0.79113  1.0000
  N   N5        1.0  0.09113  0.67947  0.22344  1.0000
  N   N6        1.0  0.90887  0.32053  0.77656  1.0000
  O   O1        1.0  0.77035  0.94558  0.32703  1.0000
  O   O2        1.0  0.22961  0.05440  0.67297  1.0000
  O   O3        1.0  0.79598  0.75378  0.44798  1.0000
  O   O4        1.0  0.20402  0.24621  0.55202  1.0000
  O   O5        1.0  0.38705  0.74963  0.56328  1.0000
  O   O6        1.0  0.61295  0.25037  0.43672  1.0000
  O   O7        1.0  0.20217  0.19380  0.97650  1.0000
  O   O8        1.0  0.79785  0.80621  0.02350  1.0000
  O   O9        1.0  0.84662  0.26775  0.05794  1.0000
  O   O10       1.0  0.15338  0.73224  0.94206  1.0000
  O   O11       1.0  0.42715  0.01080  0.15807  1.0000
  O   O12       1.0  0.57284  0.98921  0.84193  1.0000
