data_image0
_chemical_formula_structural       La4H16C20N12O20
_chemical_formula_sum              "La4 H16 C20 N12 O20"
_cell_length_a       7.14761
_cell_length_b       10.0737
_cell_length_c       11.6307
_cell_angle_alpha    89.9993
_cell_angle_beta     90.0002
_cell_angle_gamma    104.987

_space_group_name_H-M_alt    "P 1"
_space_group_IT_number       1

loop_
  _space_group_symop_operation_xyz
  'x, y, z'

loop_
  _atom_site_type_symbol
  _atom_site_label
  _atom_site_symmetry_multiplicity
  _atom_site_fract_x
  _atom_site_fract_y
  _atom_site_fract_z
  _atom_site_occupancy
  La  La1       1.0  0.77465  0.92800  0.38086  1.0000
  La  La2       1.0  0.72535  0.57201  0.88086  1.0000
  La  La3       1.0  0.22535  0.07200  0.61914  1.0000
  La  La4       1.0  0.27465  0.42799  0.11914  1.0000
  H   H1        1.0  0.24852  0.03051  0.13629  1.0000
  H   H2        1.0  0.25148  0.46949  0.63629  1.0000
  H   H3        1.0  0.75147  0.96949  0.86371  1.0000
  H   H4        1.0  0.74852  0.53051  0.36371  1.0000
  H   H5        1.0  0.36957  0.96565  0.93832  1.0000
  H   H6        1.0  0.13044  0.53435  0.43831  1.0000
  H   H7        1.0  0.63044  0.03435  0.06169  1.0000
  H   H8        1.0  0.86957  0.46565  0.56168  1.0000
  H   H9        1.0  0.19872  0.84807  0.85414  1.0000
  H   H10       1.0  0.30129  0.65193  0.35414  1.0000
  H   H11       1.0  0.80129  0.15194  0.14586  1.0000
  H   H12       1.0  0.69871  0.34807  0.64586  1.0000
  H   H13       1.0  0.50562  0.07420  0.29331  1.0000
  H   H14       1.0  0.99437  0.42580  0.79331  1.0000
  H   H15       1.0  0.49438  0.92580  0.70670  1.0000
  H   H16       1.0  0.00563  0.57420  0.20669  1.0000
  C   C1        1.0  0.68543  0.68667  0.16309  1.0000
  C   C2        1.0  0.81456  0.81332  0.66309  1.0000
  C   C3        1.0  0.31456  0.31333  0.83690  1.0000
  C   C4        1.0  0.18544  0.18667  0.33691  1.0000
  C   C5        1.0  0.86775  0.78245  0.12267  1.0000
  C   C6        1.0  0.63224  0.71755  0.62267  1.0000
  C   C7        1.0  0.13224  0.21755  0.87733  1.0000
  C   C8        1.0  0.36776  0.28245  0.37733  1.0000
  C   C9        1.0  0.12765  0.94190  0.11916  1.0000
  C   C10       1.0  0.37235  0.55810  0.61916  1.0000
  C   C11       1.0  0.87234  0.05809  0.88084  1.0000
  C   C12       1.0  0.62765  0.44191  0.38084  1.0000
  C   C13       1.0  0.26768  0.86382  0.93918  1.0000
  C   C14       1.0  0.23233  0.63618  0.43918  1.0000
  C   C15       1.0  0.73233  0.13619  0.06082  1.0000
  C   C16       1.0  0.76767  0.36382  0.56082  1.0000
  C   C17       1.0  0.37120  0.74907  0.95942  1.0000
  C   C18       1.0  0.12880  0.75093  0.45943  1.0000
  C   C19       1.0  0.62880  0.25093  0.04058  1.0000
  C   C20       1.0  0.87121  0.24907  0.54058  1.0000
  N   N1        1.0  0.11960  0.86184  0.02483  1.0000
  N   N2        1.0  0.38041  0.63815  0.52483  1.0000
  N   N3        1.0  0.88040  0.13816  0.97517  1.0000
  N   N4        1.0  0.61960  0.36184  0.47516  1.0000
  N   N5        1.0  0.96788  0.89474  0.18205  1.0000
  N   N6        1.0  0.53213  0.60526  0.68206  1.0000
  N   N7        1.0  0.03212  0.10525  0.81794  1.0000
  N   N8        1.0  0.46787  0.39475  0.31794  1.0000
  N   N9        1.0  0.95464  0.75977  0.02603  1.0000
  N   N10       1.0  0.54537  0.74023  0.52603  1.0000
  N   N11       1.0  0.04536  0.24023  0.97396  1.0000
  N   N12       1.0  0.45463  0.25977  0.47397  1.0000
  O   O1        1.0  0.62093  0.58024  0.10033  1.0000
  O   O2        1.0  0.87906  0.91976  0.60034  1.0000
  O   O3        1.0  0.37906  0.41977  0.89966  1.0000
  O   O4        1.0  0.12094  0.08023  0.39966  1.0000
  O   O5        1.0  0.61158  0.71392  0.25548  1.0000
  O   O6        1.0  0.88843  0.78607  0.75548  1.0000
  O   O7        1.0  0.38842  0.28607  0.74451  1.0000
  O   O8        1.0  0.11158  0.21393  0.24452  1.0000
  O   O9        1.0  0.28355  0.64911  0.02104  1.0000
  O   O10       1.0  0.21643  0.85088  0.52105  1.0000
  O   O11       1.0  0.71644  0.35089  0.97896  1.0000
  O   O12       1.0  0.78356  0.14911  0.47896  1.0000
  O   O13       1.0  0.53363  0.76504  0.90991  1.0000
  O   O14       1.0  0.96638  0.73496  0.40990  1.0000
  O   O15       1.0  0.46638  0.23496  0.09010  1.0000
  O   O16       1.0  0.03362  0.26504  0.59010  1.0000
  O   O17       1.0  0.55075  0.99198  0.28346  1.0000
  O   O18       1.0  0.94925  0.50803  0.78348  1.0000
  O   O19       1.0  0.44924  0.00802  0.71654  1.0000
  O   O20       1.0  0.05075  0.49197  0.21652  1.0000
