data_image0
_chemical_formula_structural       Cu2H20C20N4Cl4
_chemical_formula_sum              "Cu2 H20 C20 N4 Cl4"
_cell_length_a       3.77995
_cell_length_b       8.43872
_cell_length_c       16.9065
_cell_angle_alpha    90.0019
_cell_angle_beta     93.7598
_cell_angle_gamma    90.0016

_space_group_name_H-M_alt    "P 1"
_space_group_IT_number       1

loop_
  _space_group_symop_operation_xyz
  'x, y, z'

loop_
  _atom_site_type_symbol
  _atom_site_label
  _atom_site_symmetry_multiplicity
  _atom_site_fract_x
  _atom_site_fract_y
  _atom_site_fract_z
  _atom_site_occupancy
  Cu  Cu1       1.0  0.00000  1.00000  0.00000  1.0000
  Cu  Cu2       1.0  0.50000  0.50000  0.50000  1.0000
  H   H1        1.0  0.15635  0.02104  0.83416  1.0000
  H   H2        1.0  0.34371  0.52109  0.66584  1.0000
  H   H3        1.0  0.84366  0.97896  0.16584  1.0000
  H   H4        1.0  0.65630  0.47892  0.33417  1.0000
  H   H5        1.0  0.92024  0.50022  0.75808  1.0000
  H   H6        1.0  0.57985  0.00029  0.74191  1.0000
  H   H7        1.0  0.07976  0.49977  0.24192  1.0000
  H   H8        1.0  0.42015  0.99972  0.25809  1.0000
  H   H9        1.0  0.13219  0.22901  0.72598  1.0000
  H   H10       1.0  0.36790  0.72907  0.77402  1.0000
  H   H11       1.0  0.86781  0.77099  0.27403  1.0000
  H   H12       1.0  0.63209  0.27094  0.22598  1.0000
  H   H13       1.0  0.75394  0.55837  0.89675  1.0000
  H   H14       1.0  0.74612  0.05841  0.60323  1.0000
  H   H15       1.0  0.24606  0.44162  0.10325  1.0000
  H   H16       1.0  0.25388  0.94159  0.39676  1.0000
  H   H17       1.0  0.79286  0.33628  0.99670  1.0000
  H   H18       1.0  0.70717  0.83631  0.50329  1.0000
  H   H19       1.0  0.20714  0.66372  0.00330  1.0000
  H   H20       1.0  0.29283  0.16369  0.49671  1.0000
  C   C1        1.0  0.84396  0.44077  0.88023  1.0000
  C   C2        1.0  0.65609  0.94081  0.61976  1.0000
  C   C3        1.0  0.15604  0.55923  0.11977  1.0000
  C   C4        1.0  0.34391  0.05919  0.38024  1.0000
  C   C5        1.0  0.86703  0.31950  0.93615  1.0000
  C   C6        1.0  0.63300  0.81954  0.56384  1.0000
  C   C7        1.0  0.13296  0.68049  0.06385  1.0000
  C   C8        1.0  0.36699  0.18046  0.43616  1.0000
  C   C9        1.0  0.06962  0.14188  0.84434  1.0000
  C   C10       1.0  0.43042  0.64194  0.65565  1.0000
  C   C11       1.0  0.93038  0.85811  0.15566  1.0000
  C   C12       1.0  0.56958  0.35807  0.34435  1.0000
  C   C13       1.0  0.05637  0.25725  0.78547  1.0000
  C   C14       1.0  0.44368  0.75730  0.71452  1.0000
  C   C15       1.0  0.94362  0.74275  0.21453  1.0000
  C   C16       1.0  0.55631  0.24271  0.28548  1.0000
  C   C17       1.0  0.93949  0.40876  0.80362  1.0000
  C   C18       1.0  0.56058  0.90882  0.69637  1.0000
  C   C19       1.0  0.06050  0.59123  0.19638  1.0000
  C   C20       1.0  0.43942  0.09119  0.30363  1.0000
  N   N1        1.0  0.97642  0.17280  0.91828  1.0000
  N   N2        1.0  0.52360  0.67283  0.58171  1.0000
  N   N3        1.0  0.02358  0.82720  0.08172  1.0000
  N   N4        1.0  0.47640  0.32717  0.41829  1.0000
  Cl  Cl1       1.0  0.38694  0.15069  0.08034  1.0000
  Cl  Cl2       1.0  0.11307  0.65065  0.41965  1.0000
  Cl  Cl3       1.0  0.61307  0.84930  0.91966  1.0000
  Cl  Cl4       1.0  0.88693  0.34935  0.58035  1.0000
