data_image0
_chemical_formula_structural       H22Pt2Au2C34N10Cl2
_chemical_formula_sum              "H22 Pt2 Au2 C34 N10 Cl2"
_cell_length_a       6.38697
_cell_length_b       7.47255
_cell_length_c       19.5692
_cell_angle_alpha    90.0002
_cell_angle_beta     90.0009
_cell_angle_gamma    115.271

_space_group_name_H-M_alt    "P 1"
_space_group_IT_number       1

loop_
  _space_group_symop_operation_xyz
  'x, y, z'

loop_
  _atom_site_type_symbol
  _atom_site_label
  _atom_site_symmetry_multiplicity
  _atom_site_fract_x
  _atom_site_fract_y
  _atom_site_fract_z
  _atom_site_occupancy
  H   H1        1.0  0.55054  0.09826  0.18404  1.0000
  H   H2        1.0  0.44945  0.90173  0.68404  1.0000
  H   H3        1.0  0.58383  0.16380  0.30864  1.0000
  H   H4        1.0  0.41616  0.83619  0.80863  1.0000
  H   H5        1.0  0.43767  0.87282  0.39112  1.0000
  H   H6        1.0  0.56234  0.12718  0.89111  1.0000
  H   H7        1.0  0.26585  0.53026  0.34234  1.0000
  H   H8        1.0  0.73416  0.46975  0.84232  1.0000
  H   H9        1.0  0.11979  0.23803  0.29114  1.0000
  H   H10       1.0  0.88022  0.76198  0.79113  1.0000
  H   H11       1.0  0.96920  0.93747  0.21530  1.0000
  H   H12       1.0  0.03079  0.06253  0.71529  1.0000
  H   H13       1.0  0.98770  0.97453  0.08950  1.0000
  H   H14       1.0  0.01230  0.02546  0.58948  1.0000
  H   H15       1.0  0.02736  0.05423  0.97945  1.0000
  H   H16       1.0  0.97262  0.94576  0.47945  1.0000
  H   H17       1.0  0.08636  0.17365  0.85920  1.0000
  H   H18       1.0  0.91362  0.82633  0.35919  1.0000
  H   H19       1.0  0.26781  0.53614  0.83585  1.0000
  H   H20       1.0  0.73217  0.46386  0.33585  1.0000
  H   H21       1.0  0.38678  0.77300  0.93751  1.0000
  H   H22       1.0  0.61323  0.22701  0.43750  1.0000
  Pt  Pt1       1.0  0.35769  0.71422  0.09472  1.0000
  Pt  Pt2       1.0  0.64231  0.28578  0.59471  1.0000
  Au  Au1       1.0  0.80299  0.60511  0.06433  1.0000
  Au  Au2       1.0  0.19702  0.39492  0.56434  1.0000
  C   C1        1.0  0.49017  0.97738  0.22087  1.0000
  C   C2        1.0  0.50982  0.02260  0.72086  1.0000
  C   C3        1.0  0.50724  0.01121  0.29108  1.0000
  C   C4        1.0  0.49277  0.98880  0.79107  1.0000
  C   C5        1.0  0.42680  0.85087  0.33585  1.0000
  C   C6        1.0  0.57319  0.14913  0.83584  1.0000
  C   C7        1.0  0.33093  0.65974  0.30895  1.0000
  C   C8        1.0  0.66907  0.34027  0.80895  1.0000
  C   C9        1.0  0.31746  0.63291  0.23845  1.0000
  C   C10       1.0  0.68253  0.36709  0.73844  1.0000
  C   C11       1.0  0.22020  0.43905  0.20502  1.0000
  C   C12       1.0  0.77980  0.56096  0.70501  1.0000
  C   C13       1.0  0.12673  0.25231  0.23550  1.0000
  C   C14       1.0  0.87327  0.74769  0.73549  1.0000
  C   C15       1.0  0.04331  0.08568  0.19319  1.0000
  C   C16       1.0  0.95669  0.91433  0.69317  1.0000
  C   C17       1.0  0.05291  0.10509  0.12222  1.0000
  C   C18       1.0  0.94708  0.89490  0.62221  1.0000
  C   C19       1.0  0.14756  0.29423  0.09386  1.0000
  C   C20       1.0  0.85243  0.70577  0.59385  1.0000
  C   C21       1.0  0.17459  0.34830  0.02150  1.0000
  C   C22       1.0  0.82540  0.65169  0.52149  1.0000
  C   C23       1.0  0.10623  0.21183  0.96840  1.0000
  C   C24       1.0  0.89376  0.78817  0.46839  1.0000
  C   C25       1.0  0.13976  0.27964  0.90117  1.0000
  C   C26       1.0  0.86022  0.72035  0.40117  1.0000
  C   C27       1.0  0.24110  0.48230  0.88847  1.0000
  C   C28       1.0  0.75890  0.51771  0.38846  1.0000
  C   C29       1.0  0.30675  0.61292  0.94341  1.0000
  C   C30       1.0  0.69325  0.38706  0.44341  1.0000
  C   C31       1.0  0.87041  0.74148  0.91126  1.0000
  C   C32       1.0  0.12968  0.25850  0.41128  1.0000
  C   C33       1.0  0.74267  0.48409  0.21889  1.0000
  C   C34       1.0  0.25731  0.51591  0.71890  1.0000
  N   N1        1.0  0.39775  0.79330  0.19474  1.0000
  N   N2        1.0  0.60226  0.20670  0.69474  1.0000
  N   N3        1.0  0.22687  0.45279  0.13606  1.0000
  N   N4        1.0  0.77312  0.54721  0.63605  1.0000
  N   N5        1.0  0.27466  0.54856  0.00822  1.0000
  N   N6        1.0  0.72534  0.45143  0.50821  1.0000
  N   N7        1.0  0.84320  0.68609  0.96838  1.0000
  N   N8        1.0  0.15685  0.31391  0.46839  1.0000
  N   N9        1.0  0.76370  0.52628  0.16047  1.0000
  N   N10       1.0  0.23629  0.47374  0.66047  1.0000
  Cl  Cl1       1.0  0.51235  0.02407  0.04460  1.0000
  Cl  Cl2       1.0  0.48764  0.97591  0.54460  1.0000
