data_image0
_chemical_formula_structural       Cu6H8C16N14
_chemical_formula_sum              "Cu6 H8 C16 N14"
_cell_length_a       7.65368
_cell_length_b       8.81159
_cell_length_c       9.27967
_cell_angle_alpha    62.6034
_cell_angle_beta     65.7683
_cell_angle_gamma    77.6398

_space_group_name_H-M_alt    "P 1"
_space_group_IT_number       1

loop_
  _space_group_symop_operation_xyz
  'x, y, z'

loop_
  _atom_site_type_symbol
  _atom_site_label
  _atom_site_symmetry_multiplicity
  _atom_site_fract_x
  _atom_site_fract_y
  _atom_site_fract_z
  _atom_site_occupancy
  Cu  Cu1       1.0  0.76712  0.96448  0.23939  1.0000
  Cu  Cu2       1.0  0.23288  0.03552  0.76061  1.0000
  Cu  Cu3       1.0  0.64478  0.34526  0.53242  1.0000
  Cu  Cu4       1.0  0.35523  0.65473  0.46758  1.0000
  Cu  Cu5       1.0  0.08148  0.13158  0.52836  1.0000
  Cu  Cu6       1.0  0.91850  0.86843  0.47164  1.0000
  H   H1        1.0  0.44682  0.49390  0.77850  1.0000
  H   H2        1.0  0.55318  0.50610  0.22150  1.0000
  H   H3        1.0  0.15785  0.61889  0.94604  1.0000
  H   H4        1.0  0.84216  0.38112  0.05396  1.0000
  H   H5        1.0  0.00741  0.45583  0.26804  1.0000
  H   H6        1.0  0.99260  0.54418  0.73195  1.0000
  H   H7        1.0  0.41677  0.06117  0.26760  1.0000
  H   H8        1.0  0.58322  0.93884  0.73241  1.0000
  C   C1        1.0  0.62834  0.18829  0.92357  1.0000
  C   C2        1.0  0.37166  0.81171  0.07644  1.0000
  C   C3        1.0  0.45530  0.26676  0.01020  1.0000
  C   C4        1.0  0.54469  0.73324  0.98980  1.0000
  C   C5        1.0  0.37948  0.42513  0.91909  1.0000
  C   C6        1.0  0.62052  0.57487  0.08091  1.0000
  C   C7        1.0  0.21861  0.49502  0.01233  1.0000
  C   C8        1.0  0.78140  0.50499  0.98765  1.0000
  C   C9        1.0  0.13532  0.40579  0.19169  1.0000
  C   C10       1.0  0.86469  0.59422  0.80831  1.0000
  C   C11       1.0  0.36404  0.18492  0.19105  1.0000
  C   C12       1.0  0.63596  0.81508  0.80895  1.0000
  C   C13       1.0  0.73266  0.72683  0.34194  1.0000
  C   C14       1.0  0.26734  0.27315  0.65806  1.0000
  C   C15       1.0  0.74049  0.09801  0.35999  1.0000
  C   C16       1.0  0.25953  0.90197  0.64001  1.0000
  N   N1        1.0  0.74788  0.07804  0.00305  1.0000
  N   N2        1.0  0.25212  0.92196  0.99695  1.0000
  N   N3        1.0  0.89031  0.03596  0.88302  1.0000
  N   N4        1.0  0.10969  0.96403  0.11698  1.0000
  N   N5        1.0  0.86055  0.11781  0.73463  1.0000
  N   N6        1.0  0.13944  0.88218  0.26538  1.0000
  N   N7        1.0  0.69737  0.21446  0.75482  1.0000
  N   N8        1.0  0.30262  0.78554  0.24518  1.0000
  N   N9        1.0  0.20636  0.25177  0.28029  1.0000
  N   N10       1.0  0.79364  0.74824  0.71970  1.0000
  N   N11       1.0  0.70085  0.57938  0.41625  1.0000
  N   N12       1.0  0.29916  0.42062  0.58375  1.0000
  N   N13       1.0  0.69638  0.19769  0.42218  1.0000
  N   N14       1.0  0.30362  0.80232  0.57783  1.0000
