data_image0
_chemical_formula_structural       Cu2H14C8N2Cl2O2
_chemical_formula_sum              "Cu2 H14 C8 N2 Cl2 O2"
_cell_length_a       7.36645
_cell_length_b       7.37276
_cell_length_c       7.41196
_cell_angle_alpha    105.142
_cell_angle_beta     113.299
_cell_angle_gamma    109.932

_space_group_name_H-M_alt    "P 1"
_space_group_IT_number       1

loop_
  _space_group_symop_operation_xyz
  'x, y, z'

loop_
  _atom_site_type_symbol
  _atom_site_label
  _atom_site_symmetry_multiplicity
  _atom_site_fract_x
  _atom_site_fract_y
  _atom_site_fract_z
  _atom_site_occupancy
  Cu  Cu1       1.0  0.16243  0.58698  0.74859  1.0000
  Cu  Cu2       1.0  0.83757  0.41300  0.25139  1.0000
  H   H1        1.0  0.37813  0.18009  0.85890  1.0000
  H   H2        1.0  0.32044  0.51957  0.14018  1.0000
  H   H3        1.0  0.62187  0.81992  0.14110  1.0000
  H   H4        1.0  0.67955  0.48043  0.85983  1.0000
  H   H5        1.0  0.12047  0.18441  0.79754  1.0000
  H   H6        1.0  0.38492  0.32277  0.20093  1.0000
  H   H7        1.0  0.87952  0.81559  0.20246  1.0000
  H   H8        1.0  0.61508  0.67723  0.79907  1.0000
  H   H9        1.0  0.07938  0.15987  0.44895  1.0000
  H   H10       1.0  0.70966  0.62993  0.55046  1.0000
  H   H11       1.0  0.92062  0.84014  0.55105  1.0000
  H   H12       1.0  0.29034  0.37007  0.44954  1.0000
  H   H13       1.0  0.35406  0.18154  0.53559  1.0000
  H   H14       1.0  0.64594  0.81847  0.46442  1.0000
  C   C1        1.0  0.18143  0.78512  0.96578  1.0000
  C   C2        1.0  0.81857  0.21486  0.03423  1.0000
  C   C3        1.0  0.30545  0.28729  0.87838  1.0000
  C   C4        1.0  0.40797  0.42715  0.12083  1.0000
  C   C5        1.0  0.69455  0.71272  0.12161  1.0000
  C   C6        1.0  0.59203  0.57285  0.87918  1.0000
  C   C7        1.0  0.26271  0.27270  0.53503  1.0000
  C   C8        1.0  0.73729  0.72730  0.46497  1.0000
  N   N1        1.0  0.34392  0.41913  0.76275  1.0000
  N   N2        1.0  0.65608  0.58087  0.23724  1.0000
  Cl  Cl1       1.0  0.21481  0.71460  0.49996  1.0000
  Cl  Cl2       1.0  0.78520  0.28540  0.50004  1.0000
  O   O1        1.0  0.17866  0.91378  0.09204  1.0000
  O   O2        1.0  0.82134  0.08622  0.90798  1.0000
