data_image0
_chemical_formula_structural       Cu2H36C28N12O12
_chemical_formula_sum              "Cu2 H36 C28 N12 O12"
_cell_length_a       9.35555
_cell_length_b       9.60465
_cell_length_c       10.3959
_cell_angle_alpha    90.0002
_cell_angle_beta     90
_cell_angle_gamma    113.542

_space_group_name_H-M_alt    "P 1"
_space_group_IT_number       1

loop_
  _space_group_symop_operation_xyz
  'x, y, z'

loop_
  _atom_site_type_symbol
  _atom_site_label
  _atom_site_symmetry_multiplicity
  _atom_site_fract_x
  _atom_site_fract_y
  _atom_site_fract_z
  _atom_site_occupancy
  Cu  Cu1       1.0  0.50000  1.00000  0.50000  1.0000
  Cu  Cu2       1.0  1.00000  1.00000  1.00000  1.0000
  H   H1        1.0  0.49457  0.92906  0.77679  1.0000
  H   H2        1.0  0.00542  0.07094  0.27679  1.0000
  H   H3        1.0  0.50543  0.07094  0.22321  1.0000
  H   H4        1.0  0.99458  0.92906  0.72321  1.0000
  H   H5        1.0  0.33508  0.93239  0.72443  1.0000
  H   H6        1.0  0.16492  0.06761  0.22443  1.0000
  H   H7        1.0  0.66492  0.06761  0.27557  1.0000
  H   H8        1.0  0.83508  0.93239  0.77556  1.0000
  H   H9        1.0  0.56236  0.69356  0.54114  1.0000
  H   H10       1.0  0.93764  0.30644  0.04113  1.0000
  H   H11       1.0  0.43763  0.30644  0.45886  1.0000
  H   H12       1.0  0.06236  0.69356  0.95887  1.0000
  H   H13       1.0  0.29180  0.79770  0.26348  1.0000
  H   H14       1.0  0.20820  0.20230  0.76347  1.0000
  H   H15       1.0  0.70820  0.20230  0.73651  1.0000
  H   H16       1.0  0.79180  0.79770  0.23653  1.0000
  H   H17       1.0  0.18344  0.53679  0.14918  1.0000
  H   H18       1.0  0.31656  0.46321  0.64917  1.0000
  H   H19       1.0  0.81656  0.46321  0.85082  1.0000
  H   H20       1.0  0.68344  0.53679  0.35083  1.0000
  H   H21       1.0  0.20847  0.38407  0.22924  1.0000
  H   H22       1.0  0.29153  0.61593  0.72924  1.0000
  H   H23       1.0  0.79153  0.61593  0.77076  1.0000
  H   H24       1.0  0.70847  0.38407  0.27077  1.0000
  H   H25       1.0  0.40297  0.29543  0.16412  1.0000
  H   H26       1.0  0.09704  0.70458  0.66412  1.0000
  H   H27       1.0  0.59703  0.70457  0.83588  1.0000
  H   H28       1.0  0.90296  0.29542  0.33588  1.0000
  H   H29       1.0  0.39683  0.70162  0.99343  1.0000
  H   H30       1.0  0.10316  0.29838  0.49343  1.0000
  H   H31       1.0  0.60316  0.29838  0.00657  1.0000
  H   H32       1.0  0.89684  0.70163  0.50657  1.0000
  H   H33       1.0  0.08155  0.98684  0.45639  1.0000
  H   H34       1.0  0.41844  0.01315  0.95638  1.0000
  H   H35       1.0  0.91845  0.01317  0.54361  1.0000
  H   H36       1.0  0.58156  0.98685  0.04361  1.0000
  C   C1        1.0  0.48888  0.68613  0.45866  1.0000
  C   C2        1.0  0.01112  0.31387  0.95866  1.0000
  C   C3        1.0  0.51112  0.31387  0.54134  1.0000
  C   C4        1.0  0.98888  0.68612  0.04134  1.0000
  C   C5        1.0  0.34994  0.74035  0.31970  1.0000
  C   C6        1.0  0.15006  0.25965  0.81970  1.0000
  C   C7        1.0  0.65006  0.25965  0.68029  1.0000
  C   C8        1.0  0.84994  0.74035  0.18030  1.0000
  C   C9        1.0  0.26996  0.49857  0.18941  1.0000
  C   C10       1.0  0.23004  0.50144  0.68941  1.0000
  C   C11       1.0  0.73003  0.50144  0.81059  1.0000
  C   C12       1.0  0.76996  0.49856  0.31060  1.0000
  C   C13       1.0  0.38760  0.49875  0.09008  1.0000
  C   C14       1.0  0.11240  0.50125  0.59008  1.0000
  C   C15       1.0  0.61240  0.50125  0.90992  1.0000
  C   C16       1.0  0.88760  0.49875  0.40993  1.0000
  C   C17       1.0  0.44587  0.38534  0.09236  1.0000
  C   C18       1.0  0.05413  0.61466  0.59236  1.0000
  C   C19       1.0  0.55413  0.61466  0.90764  1.0000
  C   C20       1.0  0.94587  0.38534  0.40764  1.0000
  C   C21       1.0  0.44244  0.61323  0.99695  1.0000
  C   C22       1.0  0.05756  0.38678  0.49695  1.0000
  C   C23       1.0  0.55756  0.38678  0.00305  1.0000
  C   C24       1.0  0.94244  0.61323  0.50305  1.0000
  C   C25       1.0  0.18607  0.99395  0.51137  1.0000
  C   C26       1.0  0.31392  0.00604  0.01136  1.0000
  C   C27       1.0  0.81394  0.00605  0.48863  1.0000
  C   C28       1.0  0.68607  0.99396  0.98863  1.0000
  N   N1        1.0  0.34549  0.60142  0.29586  1.0000
  N   N2        1.0  0.15451  0.39858  0.79585  1.0000
  N   N3        1.0  0.65451  0.39858  0.70415  1.0000
  N   N4        1.0  0.84549  0.60142  0.20415  1.0000
  N   N5        1.0  0.43322  0.56473  0.38318  1.0000
  N   N6        1.0  0.06678  0.43527  0.88318  1.0000
  N   N7        1.0  0.56677  0.43527  0.61682  1.0000
  N   N8        1.0  0.93322  0.56473  0.11683  1.0000
  N   N9        1.0  0.44076  0.79698  0.42273  1.0000
  N   N10       1.0  0.05924  0.20302  0.92272  1.0000
  N   N11       1.0  0.55924  0.20303  0.57727  1.0000
  N   N12       1.0  0.94075  0.79697  0.07727  1.0000
  O   O1        1.0  0.29729  0.99786  0.43853  1.0000
  O   O2        1.0  0.20269  0.00211  0.93853  1.0000
  O   O3        1.0  0.70271  0.00214  0.56146  1.0000
  O   O4        1.0  0.79730  0.99789  0.06147  1.0000
  O   O5        1.0  0.18252  0.99802  0.63229  1.0000
  O   O6        1.0  0.31747  0.00198  0.13229  1.0000
  O   O7        1.0  0.81748  0.00198  0.36770  1.0000
  O   O8        1.0  0.68253  0.99802  0.86771  1.0000
  O   O9        1.0  0.40102  0.87428  0.72395  1.0000
  O   O10       1.0  0.09898  0.12572  0.22396  1.0000
  O   O11       1.0  0.59898  0.12572  0.27604  1.0000
  O   O12       1.0  0.90102  0.87428  0.77603  1.0000
