data_image0
_chemical_formula_structural       Cd4H36C36S8N12O4
_chemical_formula_sum              "Cd4 H36 C36 S8 N12 O4"
_cell_length_a       10.8777
_cell_length_b       10.8778
_cell_length_c       11.6556
_cell_angle_alpha    73.2071
_cell_angle_beta     73.207
_cell_angle_gamma    87.2163

_space_group_name_H-M_alt    "P 1"
_space_group_IT_number       1

loop_
  _space_group_symop_operation_xyz
  'x, y, z'

loop_
  _atom_site_type_symbol
  _atom_site_label
  _atom_site_symmetry_multiplicity
  _atom_site_fract_x
  _atom_site_fract_y
  _atom_site_fract_z
  _atom_site_occupancy
  Cd  Cd1       1.0  0.57492  0.26935  0.42909  1.0000
  Cd  Cd2       1.0  0.73065  0.42508  0.07091  1.0000
  Cd  Cd3       1.0  0.42508  0.73065  0.57091  1.0000
  Cd  Cd4       1.0  0.26936  0.57491  0.92909  1.0000
  H   H1        1.0  0.36411  0.25117  0.20838  1.0000
  H   H2        1.0  0.74883  0.63589  0.29162  1.0000
  H   H3        1.0  0.63589  0.74883  0.79162  1.0000
  H   H4        1.0  0.25117  0.36411  0.70838  1.0000
  H   H5        1.0  0.40183  0.87722  0.14220  1.0000
  H   H6        1.0  0.12278  0.59818  0.35780  1.0000
  H   H7        1.0  0.59817  0.12278  0.85779  1.0000
  H   H8        1.0  0.87722  0.40182  0.64221  1.0000
  H   H9        1.0  0.70644  0.07053  0.20298  1.0000
  H   H10       1.0  0.92947  0.29357  0.29702  1.0000
  H   H11       1.0  0.29356  0.92947  0.79702  1.0000
  H   H12       1.0  0.07052  0.70644  0.70297  1.0000
  H   H13       1.0  0.20888  0.00384  0.11758  1.0000
  H   H14       1.0  0.99616  0.79112  0.38242  1.0000
  H   H15       1.0  0.79112  0.99616  0.88241  1.0000
  H   H16       1.0  0.00384  0.20888  0.61759  1.0000
  H   H17       1.0  0.19273  0.15980  0.14021  1.0000
  H   H18       1.0  0.84020  0.80727  0.35979  1.0000
  H   H19       1.0  0.80727  0.84020  0.85978  1.0000
  H   H20       1.0  0.15980  0.19274  0.64022  1.0000
  H   H21       1.0  0.16155  0.02027  0.27108  1.0000
  H   H22       1.0  0.97973  0.83845  0.22893  1.0000
  H   H23       1.0  0.83845  0.97973  0.72892  1.0000
  H   H24       1.0  0.02027  0.16155  0.77108  1.0000
  H   H25       1.0  0.74965  0.86789  0.13962  1.0000
  H   H26       1.0  0.13211  0.25035  0.36038  1.0000
  H   H27       1.0  0.25035  0.13211  0.86037  1.0000
  H   H28       1.0  0.86788  0.74964  0.63963  1.0000
  H   H29       1.0  0.63315  0.79933  0.09250  1.0000
  H   H30       1.0  0.20067  0.36686  0.40750  1.0000
  H   H31       1.0  0.36686  0.20067  0.90750  1.0000
  H   H32       1.0  0.79932  0.63315  0.59250  1.0000
  H   H33       1.0  0.61715  0.76999  0.25281  1.0000
  H   H34       1.0  0.23001  0.38285  0.24719  1.0000
  H   H35       1.0  0.38285  0.23001  0.74718  1.0000
  H   H36       1.0  0.76998  0.61715  0.75282  1.0000
  C   C1        1.0  0.39658  0.53740  0.40863  1.0000
  C   C2        1.0  0.46260  0.60342  0.09138  1.0000
  C   C3        1.0  0.60342  0.46260  0.59138  1.0000
  C   C4        1.0  0.53741  0.39658  0.90862  1.0000
  C   C5        1.0  0.33743  0.03940  0.52743  1.0000
  C   C6        1.0  0.96059  0.66257  0.97257  1.0000
  C   C7        1.0  0.66257  0.96059  0.47257  1.0000
  C   C8        1.0  0.03941  0.33743  0.02743  1.0000
  C   C9        1.0  0.36167  0.06192  0.17628  1.0000
  C   C10       1.0  0.93808  0.63833  0.32372  1.0000
  C   C11       1.0  0.63833  0.93809  0.82372  1.0000
  C   C12       1.0  0.06191  0.36167  0.67628  1.0000
  C   C13       1.0  0.41400  0.16469  0.19729  1.0000
  C   C14       1.0  0.83531  0.58600  0.30271  1.0000
  C   C15       1.0  0.58600  0.83531  0.80271  1.0000
  C   C16       1.0  0.16469  0.41400  0.69729  1.0000
  C   C17       1.0  0.43970  0.95852  0.16038  1.0000
  C   C18       1.0  0.04148  0.56030  0.33962  1.0000
  C   C19       1.0  0.56030  0.04148  0.83962  1.0000
  C   C20       1.0  0.95852  0.43970  0.66038  1.0000
  C   C21       1.0  0.61156  0.06205  0.19193  1.0000
  C   C22       1.0  0.93795  0.38844  0.30808  1.0000
  C   C23       1.0  0.38844  0.93795  0.80807  1.0000
  C   C24       1.0  0.06205  0.61156  0.69193  1.0000
  C   C25       1.0  0.56553  0.95725  0.16908  1.0000
  C   C26       1.0  0.04275  0.43447  0.33092  1.0000
  C   C27       1.0  0.43447  0.04275  0.83092  1.0000
  C   C28       1.0  0.95724  0.56553  0.66908  1.0000
  C   C29       1.0  0.22393  0.06223  0.17531  1.0000
  C   C30       1.0  0.93776  0.77607  0.32469  1.0000
  C   C31       1.0  0.77607  0.93777  0.82469  1.0000
  C   C32       1.0  0.06223  0.22393  0.67531  1.0000
  C   C33       1.0  0.64721  0.84344  0.16147  1.0000
  C   C34       1.0  0.15656  0.35279  0.33853  1.0000
  C   C35       1.0  0.35279  0.15656  0.83853  1.0000
  C   C36       1.0  0.84344  0.64721  0.66147  1.0000
  S   S1        1.0  0.34081  0.68164  0.39762  1.0000
  S   S2        1.0  0.31836  0.65918  0.10239  1.0000
  S   S3        1.0  0.65918  0.31836  0.60238  1.0000
  S   S4        1.0  0.68165  0.34081  0.89762  1.0000
  S   S5        1.0  0.24118  0.91892  0.55074  1.0000
  S   S6        1.0  0.08109  0.75882  0.94926  1.0000
  S   S7        1.0  0.75882  0.08108  0.44926  1.0000
  S   S8        1.0  0.91891  0.24117  0.05074  1.0000
  N   N1        1.0  0.53583  0.16268  0.20532  1.0000
  N   N2        1.0  0.83732  0.46417  0.29468  1.0000
  N   N3        1.0  0.46417  0.83732  0.79468  1.0000
  N   N4        1.0  0.16268  0.53583  0.70532  1.0000
  N   N5        1.0  0.43454  0.43275  0.41653  1.0000
  N   N6        1.0  0.56725  0.56545  0.08347  1.0000
  N   N7        1.0  0.56545  0.56725  0.58347  1.0000
  N   N8        1.0  0.43276  0.43455  0.91653  1.0000
  N   N9        1.0  0.40584  0.12699  0.51375  1.0000
  N   N10       1.0  0.87302  0.59417  0.98625  1.0000
  N   N11       1.0  0.59417  0.87301  0.48625  1.0000
  N   N12       1.0  0.12699  0.40583  0.01375  1.0000
  O   O1        1.0  0.58170  0.26264  0.22693  1.0000
  O   O2        1.0  0.73736  0.41830  0.27307  1.0000
  O   O3        1.0  0.41830  0.73736  0.77307  1.0000
  O   O4        1.0  0.26264  0.58170  0.72693  1.0000
