data_image0
_chemical_formula_structural       Nd2H18C16N2O18
_chemical_formula_sum              "Nd2 H18 C16 N2 O18"
_cell_length_a       7.79574
_cell_length_b       7.59312
_cell_length_c       9.68382
_cell_angle_alpha    95.9148
_cell_angle_beta     101.915
_cell_angle_gamma    99.1865

_space_group_name_H-M_alt    "P 1"
_space_group_IT_number       1

loop_
  _space_group_symop_operation_xyz
  'x, y, z'

loop_
  _atom_site_type_symbol
  _atom_site_label
  _atom_site_symmetry_multiplicity
  _atom_site_fract_x
  _atom_site_fract_y
  _atom_site_fract_z
  _atom_site_occupancy
  Nd  Nd1       1.0  0.71855  0.21177  0.13905  1.0000
  Nd  Nd2       1.0  0.28144  0.78823  0.86095  1.0000
  H   H1        1.0  0.41090  0.44834  0.09315  1.0000
  H   H2        1.0  0.58909  0.55166  0.90684  1.0000
  H   H3        1.0  0.33597  0.25626  0.99771  1.0000
  H   H4        1.0  0.66402  0.74374  0.00228  1.0000
  H   H5        1.0  0.54977  0.47970  0.30433  1.0000
  H   H6        1.0  0.45023  0.52031  0.69566  1.0000
  H   H7        1.0  0.75086  0.51233  0.38915  1.0000
  H   H8        1.0  0.24913  0.48766  0.61085  1.0000
  H   H9        1.0  0.89980  0.59661  0.23752  1.0000
  H   H10       1.0  0.10019  0.40339  0.76248  1.0000
  H   H11       1.0  0.92242  0.59356  0.07870  1.0000
  H   H12       1.0  0.07757  0.40644  0.92130  1.0000
  H   H13       1.0  0.46753  0.68375  0.46128  1.0000
  H   H14       1.0  0.53247  0.31625  0.53873  1.0000
  H   H15       1.0  0.67454  0.81715  0.69518  1.0000
  H   H16       1.0  0.32547  0.18285  0.30482  1.0000
  H   H17       1.0  0.90977  0.09136  0.70125  1.0000
  H   H18       1.0  0.09024  0.90864  0.29875  1.0000
  C   C1        1.0  0.58527  0.88454  0.34869  1.0000
  C   C2        1.0  0.41473  0.11546  0.65131  1.0000
  C   C3        1.0  0.57070  0.80135  0.46890  1.0000
  C   C4        1.0  0.42930  0.19865  0.53111  1.0000
  C   C5        1.0  0.68488  0.87708  0.59907  1.0000
  C   C6        1.0  0.31513  0.12292  0.40094  1.0000
  C   C7        1.0  0.81360  0.02928  0.60360  1.0000
  C   C8        1.0  0.18641  0.97072  0.39640  1.0000
  C   C9        1.0  0.82310  0.10053  0.47780  1.0000
  C   C10       1.0  0.17691  0.89947  0.52220  1.0000
  C   C11       1.0  0.46437  0.81369  0.20499  1.0000
  C   C12       1.0  0.53563  0.18631  0.79501  1.0000
  C   C13       1.0  0.96863  0.25292  0.46870  1.0000
  C   C14       1.0  0.03137  0.74708  0.53130  1.0000
  C   C15       1.0  0.03935  0.08768  0.97530  1.0000
  C   C16       1.0  0.96065  0.91232  0.02471  1.0000
  N   N1        1.0  0.70768  0.03202  0.35349  1.0000
  N   N2        1.0  0.29232  0.96798  0.64651  1.0000
  O   O1        1.0  0.45408  0.92677  0.11391  1.0000
  O   O2        1.0  0.54591  0.07323  0.88609  1.0000
  O   O3        1.0  0.38366  0.65272  0.18123  1.0000
  O   O4        1.0  0.61635  0.34727  0.81877  1.0000
  O   O5        1.0  0.97411  0.29068  0.34454  1.0000
  O   O6        1.0  0.02589  0.70933  0.65546  1.0000
  O   O7        1.0  0.07806  0.32631  0.58325  1.0000
  O   O8        1.0  0.92194  0.67370  0.41675  1.0000
  O   O9        1.0  0.97310  0.22548  0.00262  1.0000
  O   O10       1.0  0.02690  0.77451  0.99738  1.0000
  O   O11       1.0  0.16481  0.07942  0.91079  1.0000
  O   O12       1.0  0.83519  0.92057  0.08921  1.0000
  O   O13       1.0  0.43590  0.32568  0.07381  1.0000
  O   O14       1.0  0.56410  0.67432  0.92618  1.0000
  O   O15       1.0  0.64475  0.41506  0.34082  1.0000
  O   O16       1.0  0.35524  0.58494  0.65917  1.0000
  O   O17       1.0  0.85540  0.52826  0.14014  1.0000
  O   O18       1.0  0.14459  0.47174  0.85986  1.0000
