data_image0
_chemical_formula_structural       Cu2H12C16N24
_chemical_formula_sum              "Cu2 H12 C16 N24"
_cell_length_a       8.46496
_cell_length_b       8.4667
_cell_length_c       10.0751
_cell_angle_alpha    102.67
_cell_angle_beta     102.692
_cell_angle_gamma    118.514

_space_group_name_H-M_alt    "P 1"
_space_group_IT_number       1

loop_
  _space_group_symop_operation_xyz
  'x, y, z'

loop_
  _atom_site_type_symbol
  _atom_site_label
  _atom_site_symmetry_multiplicity
  _atom_site_fract_x
  _atom_site_fract_y
  _atom_site_fract_z
  _atom_site_occupancy
  Cu  Cu1       1.0  0.11137  0.36107  0.24992  1.0000
  Cu  Cu2       1.0  0.88863  0.63893  0.75008  1.0000
  H   H1        1.0  0.83948  0.12846  0.89713  1.0000
  H   H2        1.0  0.23155  0.44181  0.60269  1.0000
  H   H3        1.0  0.16051  0.87154  0.10287  1.0000
  H   H4        1.0  0.76843  0.55818  0.39730  1.0000
  H   H5        1.0  0.29833  0.22904  0.80995  1.0000
  H   H6        1.0  0.41928  0.98814  0.68968  1.0000
  H   H7        1.0  0.70168  0.77096  0.19005  1.0000
  H   H8        1.0  0.58072  0.01187  0.31031  1.0000
  H   H9        1.0  0.46295  0.29983  0.26032  1.0000
  H   H10       1.0  0.03921  0.70179  0.23946  1.0000
  H   H11       1.0  0.53705  0.70017  0.73969  1.0000
  H   H12       1.0  0.96079  0.29821  0.76054  1.0000
  C   C1        1.0  0.59903  0.25760  0.03267  1.0000
  C   C2        1.0  0.22469  0.06565  0.46698  1.0000
  C   C3        1.0  0.40098  0.74240  0.96733  1.0000
  C   C4        1.0  0.77531  0.93435  0.53302  1.0000
  C   C5        1.0  0.77925  0.18773  0.96147  1.0000
  C   C6        1.0  0.22636  0.31720  0.53830  1.0000
  C   C7        1.0  0.22075  0.81227  0.03853  1.0000
  C   C8        1.0  0.77363  0.68279  0.46170  1.0000
  C   C9        1.0  0.30092  0.25257  0.92194  1.0000
  C   C10       1.0  0.33069  0.87862  0.57778  1.0000
  C   C11       1.0  0.69908  0.74743  0.07807  1.0000
  C   C12       1.0  0.66931  0.12138  0.42222  1.0000
  C   C13       1.0  0.38740  0.29112  0.15419  1.0000
  C   C14       1.0  0.13665  0.73249  0.34562  1.0000
  C   C15       1.0  0.61260  0.70888  0.84582  1.0000
  C   C16       1.0  0.86336  0.26751  0.65438  1.0000
  N   N1        1.0  0.87483  0.30006  0.10614  1.0000
  N   N2        1.0  0.19408  0.26821  0.39364  1.0000
  N   N3        1.0  0.12518  0.69995  0.89387  1.0000
  N   N4        1.0  0.80591  0.73179  0.60636  1.0000
  N   N5        1.0  0.75774  0.34752  0.15338  1.0000
  N   N6        1.0  0.19410  0.10379  0.34632  1.0000
  N   N7        1.0  0.24226  0.65248  0.84662  1.0000
  N   N8        1.0  0.80590  0.89620  0.65368  1.0000
  N   N9        1.0  0.60204  0.15691  0.91008  1.0000
  N   N10       1.0  0.24665  0.19124  0.58961  1.0000
  N   N11       1.0  0.39796  0.84309  0.08992  1.0000
  N   N12       1.0  0.75334  0.80876  0.41039  1.0000
  N   N13       1.0  0.23014  0.29565  0.11470  1.0000
  N   N14       1.0  0.18080  0.61486  0.38521  1.0000
  N   N15       1.0  0.76986  0.70435  0.88531  1.0000
  N   N16       1.0  0.81920  0.38514  0.61479  1.0000
  N   N17       1.0  0.17543  0.27202  0.96890  1.0000
  N   N18       1.0  0.30316  0.70615  0.53096  1.0000
  N   N19       1.0  0.82457  0.72798  0.03110  1.0000
  N   N20       1.0  0.69684  0.29385  0.46904  1.0000
  N   N21       1.0  0.43747  0.26563  0.03542  1.0000
  N   N22       1.0  0.23002  0.90140  0.46426  1.0000
  N   N23       1.0  0.56254  0.73437  0.96458  1.0000
  N   N24       1.0  0.76998  0.09860  0.53574  1.0000
