data_image0
_chemical_formula_structural       H8Ru2C20N2O8F12
_chemical_formula_sum              "H8 Ru2 C20 N2 O8 F12"
_cell_length_a       8.63123
_cell_length_b       8.77605
_cell_length_c       9.10906
_cell_angle_alpha    112.803
_cell_angle_beta     93.6618
_cell_angle_gamma    90.2764

_space_group_name_H-M_alt    "P 1"
_space_group_IT_number       1

loop_
  _space_group_symop_operation_xyz
  'x, y, z'

loop_
  _atom_site_type_symbol
  _atom_site_label
  _atom_site_symmetry_multiplicity
  _atom_site_fract_x
  _atom_site_fract_y
  _atom_site_fract_z
  _atom_site_occupancy
  H   H1        1.0  0.29063  0.26019  0.28737  1.0000
  H   H2        1.0  0.70938  0.73981  0.71263  1.0000
  H   H3        1.0  0.50813  0.30758  0.49029  1.0000
  H   H4        1.0  0.49187  0.69242  0.50971  1.0000
  H   H5        1.0  0.47995  0.49589  0.77377  1.0000
  H   H6        1.0  0.52005  0.50411  0.22624  1.0000
  H   H7        1.0  0.23520  0.64015  0.85220  1.0000
  H   H8        1.0  0.76480  0.35985  0.14780  1.0000
  Ru  Ru1       1.0  0.99481  0.86957  0.89550  1.0000
  Ru  Ru2       1.0  0.00519  0.13042  0.10450  1.0000
  C   C1        1.0  0.73183  0.93200  0.08719  1.0000
  C   C2        1.0  0.26817  0.06801  0.91282  1.0000
  C   C3        1.0  0.58104  0.89069  0.14853  1.0000
  C   C4        1.0  0.41896  0.10932  0.85147  1.0000
  C   C5        1.0  0.88024  0.13175  0.80489  1.0000
  C   C6        1.0  0.11976  0.86825  0.19510  1.0000
  C   C7        1.0  0.82302  0.20800  0.68500  1.0000
  C   C8        1.0  0.17698  0.79200  0.31499  1.0000
  C   C9        1.0  0.13351  0.41753  0.45224  1.0000
  C   C10       1.0  0.86649  0.58247  0.54776  1.0000
  C   C11       1.0  0.27763  0.34017  0.41091  1.0000
  C   C12       1.0  0.72237  0.65983  0.58910  1.0000
  C   C13       1.0  0.39870  0.36832  0.52419  1.0000
  C   C14       1.0  0.60130  0.63168  0.47581  1.0000
  C   C15       1.0  0.38298  0.47625  0.68512  1.0000
  C   C16       1.0  0.61702  0.52375  0.31488  1.0000
  C   C17       1.0  0.24763  0.55755  0.72920  1.0000
  C   C18       1.0  0.75237  0.44245  0.27080  1.0000
  C   C19       1.0  0.11967  0.53360  0.61499  1.0000
  C   C20       1.0  0.88033  0.46640  0.38501  1.0000
  N   N1        1.0  0.01253  0.38337  0.34077  1.0000
  N   N2        1.0  0.98748  0.61663  0.65924  1.0000
  O   O1        1.0  0.78328  0.81980  0.96614  1.0000
  O   O2        1.0  0.21673  0.18018  0.03386  1.0000
  O   O3        1.0  0.20796  0.92555  0.83245  1.0000
  O   O4        1.0  0.79203  0.07444  0.16754  1.0000
  O   O5        1.0  0.89828  0.97712  0.74614  1.0000
  O   O6        1.0  0.10171  0.02288  0.25386  1.0000
  O   O7        1.0  0.09190  0.76963  0.05077  1.0000
  O   O8        1.0  0.90810  0.23037  0.94923  1.0000
  F   F1        1.0  0.61431  0.86637  0.28514  1.0000
  F   F2        1.0  0.38569  0.13363  0.71487  1.0000
  F   F3        1.0  0.48082  0.01760  0.18113  1.0000
  F   F4        1.0  0.51918  0.98240  0.81887  1.0000
  F   F5        1.0  0.50573  0.75277  0.04122  1.0000
  F   F6        1.0  0.49426  0.24723  0.95878  1.0000
  F   F7        1.0  0.94259  0.21649  0.59725  1.0000
  F   F8        1.0  0.05742  0.78350  0.40275  1.0000
  F   F9        1.0  0.70650  0.11438  0.58249  1.0000
  F   F10       1.0  0.29349  0.88563  0.41750  1.0000
  F   F11       1.0  0.77130  0.36281  0.75959  1.0000
  F   F12       1.0  0.22871  0.63719  0.24041  1.0000
