data_image0
_chemical_formula_structural       Cu2H12C10N4O12
_chemical_formula_sum              "Cu2 H12 C10 N4 O12"
_cell_length_a       6.88583
_cell_length_b       7.99965
_cell_length_c       8.39052
_cell_angle_alpha    106.135
_cell_angle_beta     91.8944
_cell_angle_gamma    112.942

_space_group_name_H-M_alt    "P 1"
_space_group_IT_number       1

loop_
  _space_group_symop_operation_xyz
  'x, y, z'

loop_
  _atom_site_type_symbol
  _atom_site_label
  _atom_site_symmetry_multiplicity
  _atom_site_fract_x
  _atom_site_fract_y
  _atom_site_fract_z
  _atom_site_occupancy
  Cu  Cu1       1.0  0.20988  0.23817  0.56362  1.0000
  Cu  Cu2       1.0  0.79012  0.76182  0.43638  1.0000
  H   H1        1.0  0.54198  0.24607  0.11176  1.0000
  H   H2        1.0  0.45803  0.75394  0.88824  1.0000
  H   H3        1.0  0.96572  0.24140  0.90551  1.0000
  H   H4        1.0  0.03428  0.75860  0.09449  1.0000
  H   H5        1.0  0.16913  0.80799  0.39777  1.0000
  H   H6        1.0  0.83088  0.19201  0.60223  1.0000
  H   H7        1.0  0.15835  0.60303  0.66349  1.0000
  H   H8        1.0  0.84165  0.39697  0.33650  1.0000
  H   H9        1.0  0.33002  0.61618  0.54012  1.0000
  H   H10       1.0  0.66998  0.38381  0.45987  1.0000
  H   H11       1.0  0.12483  0.83095  0.59506  1.0000
  H   H12       1.0  0.87517  0.16905  0.40495  1.0000
  C   C1        1.0  0.12538  0.22502  0.21801  1.0000
  C   C2        1.0  0.87462  0.77498  0.78199  1.0000
  C   C3        1.0  0.21946  0.23708  0.06301  1.0000
  C   C4        1.0  0.78055  0.76292  0.93699  1.0000
  C   C5        1.0  0.41809  0.24355  0.02685  1.0000
  C   C6        1.0  0.58191  0.75646  0.97316  1.0000
  C   C7        1.0  0.42062  0.25208  0.86250  1.0000
  C   C8        1.0  0.57938  0.74792  0.13750  1.0000
  C   C9        1.0  0.57744  0.26406  0.74535  1.0000
  C   C10       1.0  0.42256  0.73593  0.25466  1.0000
  N   N1        1.0  0.11461  0.24074  0.92398  1.0000
  N   N2        1.0  0.88539  0.75926  0.07602  1.0000
  N   N3        1.0  0.23423  0.24970  0.80241  1.0000
  N   N4        1.0  0.76577  0.75030  0.19759  1.0000
  O   O1        1.0  0.94270  0.22652  0.22659  1.0000
  O   O2        1.0  0.05730  0.77348  0.77341  1.0000
  O   O3        1.0  0.24390  0.20986  0.32897  1.0000
  O   O4        1.0  0.75610  0.79013  0.67103  1.0000
  O   O5        1.0  0.75604  0.26394  0.78296  1.0000
  O   O6        1.0  0.24396  0.73606  0.21704  1.0000
  O   O7        1.0  0.51631  0.27365  0.60221  1.0000
  O   O8        1.0  0.48368  0.72634  0.39779  1.0000
  O   O9        1.0  0.10797  0.86887  0.49293  1.0000
  O   O10       1.0  0.89202  0.13114  0.50707  1.0000
  O   O11       1.0  0.24949  0.54202  0.61084  1.0000
  O   O12       1.0  0.75050  0.45797  0.38915  1.0000
