data_image0
_chemical_formula_structural       V4Zn4H24C36N4O20
_chemical_formula_sum              "V4 Zn4 H24 C36 N4 O20"
_cell_length_a       10.5566
_cell_length_b       10.6842
_cell_length_c       11.2131
_cell_angle_alpha    80.9436
_cell_angle_beta     63.0762
_cell_angle_gamma    63.6613

_space_group_name_H-M_alt    "P 1"
_space_group_IT_number       1

loop_
  _space_group_symop_operation_xyz
  'x, y, z'

loop_
  _atom_site_type_symbol
  _atom_site_label
  _atom_site_symmetry_multiplicity
  _atom_site_fract_x
  _atom_site_fract_y
  _atom_site_fract_z
  _atom_site_occupancy
  V   V1        1.0  0.16205  0.03777  0.28224  1.0000
  V   V2        1.0  0.83795  0.96222  0.71776  1.0000
  V   V3        1.0  0.20165  0.76913  0.46296  1.0000
  V   V4        1.0  0.79835  0.23087  0.53704  1.0000
  Zn  Zn1       1.0  0.29012  0.50102  0.28040  1.0000
  Zn  Zn2       1.0  0.70988  0.49898  0.71960  1.0000
  Zn  Zn3       1.0  0.25534  0.76825  0.09328  1.0000
  Zn  Zn4       1.0  0.74466  0.23175  0.90672  1.0000
  H   H1        1.0  0.94692  0.40815  0.27103  1.0000
  H   H2        1.0  0.05308  0.59185  0.72897  1.0000
  H   H3        1.0  0.71538  0.40678  0.26548  1.0000
  H   H4        1.0  0.28462  0.59322  0.73452  1.0000
  H   H5        1.0  0.68195  0.75994  0.01458  1.0000
  H   H6        1.0  0.31805  0.24006  0.98542  1.0000
  H   H7        1.0  0.90862  0.76439  0.02570  1.0000
  H   H8        1.0  0.09138  0.23561  0.97430  1.0000
  H   H9        1.0  0.11603  0.32561  0.41170  1.0000
  H   H10       1.0  0.88398  0.67439  0.58829  1.0000
  H   H11       1.0  0.11639  0.14633  0.57862  1.0000
  H   H12       1.0  0.88361  0.85367  0.42138  1.0000
  H   H13       1.0  0.50381  0.18284  0.59149  1.0000
  H   H14       1.0  0.49619  0.81716  0.40851  1.0000
  H   H15       1.0  0.47936  0.36737  0.43264  1.0000
  H   H16       1.0  0.52064  0.63263  0.56736  1.0000
  H   H17       1.0  0.12908  0.99671  0.70548  1.0000
  H   H18       1.0  0.87092  0.00329  0.29452  1.0000
  H   H19       1.0  0.12567  0.83721  0.88868  1.0000
  H   H20       1.0  0.87433  0.16279  0.11132  1.0000
  H   H21       1.0  0.48562  0.87998  0.91358  1.0000
  H   H22       1.0  0.51438  0.12002  0.08642  1.0000
  H   H23       1.0  0.50682  0.03987  0.73106  1.0000
  H   H24       1.0  0.49318  0.96013  0.26894  1.0000
  C   C1        1.0  0.07842  0.59119  0.15556  1.0000
  C   C2        1.0  0.92157  0.40881  0.84444  1.0000
  C   C3        1.0  0.94166  0.58741  0.14978  1.0000
  C   C4        1.0  0.05834  0.41259  0.85022  1.0000
  C   C5        1.0  0.88752  0.48577  0.21625  1.0000
  C   C6        1.0  0.11248  0.51423  0.78375  1.0000
  C   C7        1.0  0.75920  0.48366  0.21131  1.0000
  C   C8        1.0  0.24080  0.51634  0.78869  1.0000
  C   C9        1.0  0.68364  0.58283  0.13941  1.0000
  C   C10       1.0  0.31636  0.41717  0.86059  1.0000
  C   C11       1.0  0.73800  0.68413  0.07251  1.0000
  C   C12       1.0  0.26199  0.31588  0.92749  1.0000
  C   C13       1.0  0.86611  0.68609  0.07786  1.0000
  C   C14       1.0  0.13389  0.31390  0.92214  1.0000
  C   C15       1.0  0.54260  0.58392  0.13740  1.0000
  C   C16       1.0  0.45740  0.41608  0.86260  1.0000
  C   C17       1.0  0.19914  0.29114  0.45514  1.0000
  C   C18       1.0  0.80086  0.70886  0.54486  1.0000
  C   C19       1.0  0.20262  0.18848  0.54750  1.0000
  C   C20       1.0  0.79738  0.81152  0.45250  1.0000
  C   C21       1.0  0.31324  0.14406  0.59985  1.0000
  C   C22       1.0  0.68677  0.85594  0.40015  1.0000
  C   C23       1.0  0.41515  0.20959  0.55579  1.0000
  C   C24       1.0  0.58485  0.79041  0.44421  1.0000
  C   C25       1.0  0.40359  0.31340  0.46468  1.0000
  C   C26       1.0  0.59641  0.68660  0.53532  1.0000
  C   C27       1.0  0.31721  0.03697  0.70100  1.0000
  C   C28       1.0  0.68279  0.96304  0.29900  1.0000
  C   C29       1.0  0.21292  0.97386  0.74563  1.0000
  C   C30       1.0  0.78708  0.02614  0.25437  1.0000
  C   C31       1.0  0.20876  0.88421  0.84969  1.0000
  C   C32       1.0  0.79124  0.11579  0.15031  1.0000
  C   C33       1.0  0.40906  0.90789  0.86437  1.0000
  C   C34       1.0  0.59094  0.09211  0.13563  1.0000
  C   C35       1.0  0.41993  0.99858  0.76071  1.0000
  C   C36       1.0  0.58006  0.00142  0.23929  1.0000
  N   N1        1.0  0.29835  0.35282  0.41372  1.0000
  N   N2        1.0  0.70165  0.64717  0.58627  1.0000
  N   N3        1.0  0.30342  0.85311  0.91000  1.0000
  N   N4        1.0  0.69657  0.14690  0.09001  1.0000
  O   O1        1.0  0.15123  0.49286  0.21325  1.0000
  O   O2        1.0  0.84877  0.50714  0.78675  1.0000
  O   O3        1.0  0.11289  0.69328  0.10212  1.0000
  O   O4        1.0  0.88711  0.30672  0.89788  1.0000
  O   O5        1.0  0.46372  0.69070  0.09099  1.0000
  O   O6        1.0  0.53628  0.30930  0.90901  1.0000
  O   O7        1.0  0.50878  0.47969  0.18345  1.0000
  O   O8        1.0  0.49122  0.52031  0.81655  1.0000
  O   O9        1.0  0.12824  0.94735  0.19802  1.0000
  O   O10       1.0  0.87176  0.05265  0.80198  1.0000
  O   O11       1.0  0.02142  0.82639  0.61276  1.0000
  O   O12       1.0  0.97858  0.17361  0.38724  1.0000
  O   O13       1.0  0.28243  0.10328  0.17901  1.0000
  O   O14       1.0  0.71757  0.89671  0.82099  1.0000
  O   O15       1.0  0.24842  0.91435  0.38525  1.0000
  O   O16       1.0  0.75158  0.08565  0.61474  1.0000
  O   O17       1.0  0.34323  0.65636  0.49830  1.0000
  O   O18       1.0  0.65677  0.34364  0.50170  1.0000
  O   O19       1.0  0.18072  0.69325  0.35404  1.0000
  O   O20       1.0  0.81928  0.30675  0.64597  1.0000
