data_image0
_chemical_formula_structural       Zn4H28C28N4O24
_chemical_formula_sum              "Zn4 H28 C28 N4 O24"
_cell_length_a       5.2895
_cell_length_b       11.4172
_cell_length_c       13.7304
_cell_angle_alpha    90
_cell_angle_beta     93.3502
_cell_angle_gamma    89.9997

_space_group_name_H-M_alt    "P 1"
_space_group_IT_number       1

loop_
  _space_group_symop_operation_xyz
  'x, y, z'

loop_
  _atom_site_type_symbol
  _atom_site_label
  _atom_site_symmetry_multiplicity
  _atom_site_fract_x
  _atom_site_fract_y
  _atom_site_fract_z
  _atom_site_occupancy
  Zn  Zn1       1.0  0.07688  0.63622  0.96740  1.0000
  Zn  Zn2       1.0  0.42311  0.13622  0.53260  1.0000
  Zn  Zn3       1.0  0.92311  0.36378  0.03260  1.0000
  Zn  Zn4       1.0  0.57689  0.86378  0.46740  1.0000
  H   H1        1.0  0.90520  0.53887  0.13718  1.0000
  H   H2        1.0  0.59478  0.03887  0.36283  1.0000
  H   H3        1.0  0.09479  0.46112  0.86283  1.0000
  H   H4        1.0  0.40522  0.96113  0.63718  1.0000
  H   H5        1.0  0.64750  0.56882  0.06904  1.0000
  H   H6        1.0  0.85249  0.06882  0.43096  1.0000
  H   H7        1.0  0.35249  0.43118  0.93096  1.0000
  H   H8        1.0  0.14752  0.93118  0.56904  1.0000
  H   H9        1.0  0.91092  0.05539  0.21204  1.0000
  H   H10       1.0  0.58909  0.55540  0.28796  1.0000
  H   H11       1.0  0.08910  0.94461  0.78797  1.0000
  H   H12       1.0  0.41091  0.44461  0.71204  1.0000
  H   H13       1.0  0.61774  0.02155  0.06735  1.0000
  H   H14       1.0  0.88226  0.52155  0.43265  1.0000
  H   H15       1.0  0.38228  0.97845  0.93265  1.0000
  H   H16       1.0  0.11773  0.47845  0.56735  1.0000
  H   H17       1.0  0.68458  0.84315  0.96164  1.0000
  H   H18       1.0  0.81542  0.34316  0.53836  1.0000
  H   H19       1.0  0.31542  0.15685  0.03836  1.0000
  H   H20       1.0  0.18458  0.65684  0.46164  1.0000
  H   H21       1.0  0.22584  0.73900  0.80795  1.0000
  H   H22       1.0  0.27416  0.23900  0.69205  1.0000
  H   H23       1.0  0.77416  0.26100  0.19205  1.0000
  H   H24       1.0  0.72583  0.76100  0.30795  1.0000
  H   H25       1.0  0.48229  0.69160  0.86339  1.0000
  H   H26       1.0  0.01772  0.19160  0.63661  1.0000
  H   H27       1.0  0.51772  0.30840  0.13661  1.0000
  H   H28       1.0  0.98228  0.80840  0.36339  1.0000
  C   C1        1.0  0.15726  0.80352  0.12580  1.0000
  C   C2        1.0  0.34274  0.30352  0.37420  1.0000
  C   C3        1.0  0.84276  0.19648  0.87420  1.0000
  C   C4        1.0  0.65725  0.69648  0.62580  1.0000
  C   C5        1.0  0.12911  0.89884  0.18861  1.0000
  C   C6        1.0  0.37088  0.39885  0.31140  1.0000
  C   C7        1.0  0.87090  0.10116  0.81140  1.0000
  C   C8        1.0  0.62911  0.60116  0.68860  1.0000
  C   C9        1.0  0.93389  0.97886  0.16596  1.0000
  C   C10       1.0  0.56611  0.47886  0.33403  1.0000
  C   C11       1.0  0.06612  0.02114  0.83404  1.0000
  C   C12       1.0  0.43389  0.52114  0.66596  1.0000
  C   C13       1.0  0.77078  0.96011  0.08451  1.0000
  C   C14       1.0  0.72921  0.46011  0.41549  1.0000
  C   C15       1.0  0.22924  0.03990  0.91549  1.0000
  C   C16       1.0  0.27077  0.53990  0.58452  1.0000
  C   C17       1.0  0.80748  0.86249  0.02630  1.0000
  C   C18       1.0  0.69253  0.36250  0.47370  1.0000
  C   C19       1.0  0.19255  0.13751  0.97370  1.0000
  C   C20       1.0  0.30746  0.63751  0.52630  1.0000
  C   C21       1.0  0.37512  0.71751  0.13861  1.0000
  C   C22       1.0  0.12488  0.21751  0.36140  1.0000
  C   C23       1.0  0.62488  0.28249  0.86140  1.0000
  C   C24       1.0  0.87514  0.78248  0.63861  1.0000
  C   C25       1.0  0.30472  0.92539  0.27616  1.0000
  C   C26       1.0  0.19526  0.42540  0.22384  1.0000
  C   C27       1.0  0.69529  0.07461  0.72384  1.0000
  C   C28       1.0  0.80473  0.57460  0.77616  1.0000
  N   N1        1.0  0.99736  0.78710  0.04671  1.0000
  N   N2        1.0  0.50264  0.28711  0.45329  1.0000
  N   N3        1.0  0.00265  0.21290  0.95329  1.0000
  N   N4        1.0  0.49735  0.71290  0.54671  1.0000
  O   O1        1.0  0.37751  0.63416  0.07534  1.0000
  O   O2        1.0  0.12248  0.13416  0.42466  1.0000
  O   O3        1.0  0.62248  0.36584  0.92466  1.0000
  O   O4        1.0  0.87752  0.86583  0.57534  1.0000
  O   O5        1.0  0.54100  0.73272  0.20585  1.0000
  O   O6        1.0  0.95899  0.23272  0.29415  1.0000
  O   O7        1.0  0.45900  0.26728  0.79415  1.0000
  O   O8        1.0  0.04102  0.76728  0.70583  1.0000
  O   O9        1.0  0.27929  0.86665  0.35513  1.0000
  O   O10       1.0  0.22070  0.36665  0.14487  1.0000
  O   O11       1.0  0.72072  0.13335  0.64487  1.0000
  O   O12       1.0  0.77929  0.63334  0.85513  1.0000
  O   O13       1.0  0.45216  0.01044  0.26617  1.0000
  O   O14       1.0  0.04782  0.51044  0.23383  1.0000
  O   O15       1.0  0.54785  0.98956  0.73383  1.0000
  O   O16       1.0  0.95216  0.48955  0.76616  1.0000
  O   O17       1.0  0.82671  0.53807  0.06670  1.0000
  O   O18       1.0  0.67328  0.03806  0.43330  1.0000
  O   O19       1.0  0.17328  0.46194  0.93330  1.0000
  O   O20       1.0  0.32672  0.96194  0.56670  1.0000
  O   O21       1.0  0.31191  0.72583  0.87305  1.0000
  O   O22       1.0  0.18810  0.22584  0.62695  1.0000
  O   O23       1.0  0.68810  0.27417  0.12695  1.0000
  O   O24       1.0  0.81189  0.77417  0.37305  1.0000
