data_image0
_chemical_formula_structural       K4H16C8N28O4
_chemical_formula_sum              "K4 H16 C8 N28 O4"
_cell_length_a       8.00171
_cell_length_b       8.00229
_cell_length_c       11.8647
_cell_angle_alpha    93.5097
_cell_angle_beta     108.937
_cell_angle_gamma    115.341

_space_group_name_H-M_alt    "P 1"
_space_group_IT_number       1

loop_
  _space_group_symop_operation_xyz
  'x, y, z'

loop_
  _atom_site_type_symbol
  _atom_site_label
  _atom_site_symmetry_multiplicity
  _atom_site_fract_x
  _atom_site_fract_y
  _atom_site_fract_z
  _atom_site_occupancy
  K   K1        1.0  0.73725  0.99863  0.96553  1.0000
  K   K2        1.0  0.53261  0.77120  0.53434  1.0000
  K   K3        1.0  0.26275  0.00137  0.03447  1.0000
  K   K4        1.0  0.46740  0.22880  0.46566  1.0000
  H   H1        1.0  0.93449  0.37908  0.56109  1.0000
  H   H2        1.0  0.31801  0.37339  0.93895  1.0000
  H   H3        1.0  0.06551  0.62092  0.43891  1.0000
  H   H4        1.0  0.68199  0.62661  0.06105  1.0000
  H   H5        1.0  0.88554  0.56131  0.56476  1.0000
  H   H6        1.0  0.49643  0.32050  0.93528  1.0000
  H   H7        1.0  0.11446  0.43869  0.43524  1.0000
  H   H8        1.0  0.50357  0.67949  0.06472  1.0000
  H   H9        1.0  0.74244  0.26141  0.75578  1.0000
  H   H10       1.0  0.00562  0.98658  0.74426  1.0000
  H   H11       1.0  0.25756  0.73859  0.24422  1.0000
  H   H12       1.0  0.99438  0.01342  0.25574  1.0000
  H   H13       1.0  0.83867  0.35858  0.91332  1.0000
  H   H14       1.0  0.94517  0.92540  0.58668  1.0000
  H   H15       1.0  0.16133  0.64142  0.08668  1.0000
  H   H16       1.0  0.05483  0.07460  0.41332  1.0000
  C   C1        1.0  0.22608  0.71030  0.76392  1.0000
  C   C2        1.0  0.44643  0.46208  0.73615  1.0000
  C   C3        1.0  0.77393  0.28970  0.23608  1.0000
  C   C4        1.0  0.55357  0.53792  0.26385  1.0000
  C   C5        1.0  0.02568  0.49159  0.83170  1.0000
  C   C6        1.0  0.15990  0.19393  0.66835  1.0000
  C   C7        1.0  0.97432  0.50841  0.16830  1.0000
  C   C8        1.0  0.84010  0.80607  0.33165  1.0000
  N   N1        1.0  0.19186  0.61259  0.92822  1.0000
  N   N2        1.0  0.18438  0.26364  0.57184  1.0000
  N   N3        1.0  0.80814  0.38741  0.07178  1.0000
  N   N4        1.0  0.81562  0.73636  0.42816  1.0000
  N   N5        1.0  0.31630  0.75243  0.88456  1.0000
  N   N6        1.0  0.36787  0.43176  0.61552  1.0000
  N   N7        1.0  0.68370  0.24757  0.11544  1.0000
  N   N8        1.0  0.63214  0.56824  0.38448  1.0000
  N   N9        1.0  0.28379  0.80080  0.67727  1.0000
  N   N10       1.0  0.62362  0.60641  0.82277  1.0000
  N   N11       1.0  0.71621  0.19920  0.32273  1.0000
  N   N12       1.0  0.37638  0.39359  0.17723  1.0000
  N   N13       1.0  0.43834  0.96857  0.72725  1.0000
  N   N14       1.0  0.74124  0.71104  0.77271  1.0000
  N   N15       1.0  0.56166  0.03143  0.27275  1.0000
  N   N16       1.0  0.25877  0.28896  0.22729  1.0000
  N   N17       1.0  0.04371  0.54521  0.72656  1.0000
  N   N18       1.0  0.31866  0.31708  0.77349  1.0000
  N   N19       1.0  0.95629  0.45479  0.27344  1.0000
  N   N20       1.0  0.68134  0.68292  0.22651  1.0000
  N   N21       1.0  0.89471  0.45711  0.60889  1.0000
  N   N22       1.0  0.34815  0.28572  0.89116  1.0000
  N   N23       1.0  0.10530  0.54289  0.39111  1.0000
  N   N24       1.0  0.65186  0.71428  0.10884  1.0000
  N   N25       1.0  0.86725  0.33959  0.83593  1.0000
  N   N26       1.0  0.00369  0.03128  0.66412  1.0000
  N   N27       1.0  0.13275  0.66041  0.16407  1.0000
  N   N28       1.0  0.99632  0.96872  0.33588  1.0000
  O   O1        1.0  0.49999  0.05592  0.64922  1.0000
  O   O2        1.0  0.90672  0.85061  0.85070  1.0000
  O   O3        1.0  0.50001  0.94408  0.35078  1.0000
  O   O4        1.0  0.09328  0.14939  0.14930  1.0000
