data_image0
_chemical_formula_structural       Na4H24C8N28O8
_chemical_formula_sum              "Na4 H24 C8 N28 O8"
_cell_length_a       7.06937
_cell_length_b       8.82859
_cell_length_c       12.6146
_cell_angle_alpha    68.7096
_cell_angle_beta     80.2228
_cell_angle_gamma    67.6943

_space_group_name_H-M_alt    "P 1"
_space_group_IT_number       1

loop_
  _space_group_symop_operation_xyz
  'x, y, z'

loop_
  _atom_site_type_symbol
  _atom_site_label
  _atom_site_symmetry_multiplicity
  _atom_site_fract_x
  _atom_site_fract_y
  _atom_site_fract_z
  _atom_site_occupancy
  Na  Na1       1.0  0.27360  0.30084  0.42188  1.0000
  Na  Na2       1.0  0.72640  0.69915  0.57812  1.0000
  Na  Na3       1.0  0.01223  0.26029  0.02916  1.0000
  Na  Na4       1.0  0.98777  0.73971  0.97084  1.0000
  H   H1        1.0  0.43839  0.59460  0.40055  1.0000
  H   H2        1.0  0.56160  0.40541  0.59945  1.0000
  H   H3        1.0  0.19638  0.63758  0.45680  1.0000
  H   H4        1.0  0.80360  0.36242  0.54320  1.0000
  H   H5        1.0  0.18760  0.10737  0.26627  1.0000
  H   H6        1.0  0.81240  0.89263  0.73373  1.0000
  H   H7        1.0  0.24875  0.92366  0.38956  1.0000
  H   H8        1.0  0.75125  0.07634  0.61044  1.0000
  H   H9        1.0  0.51973  0.82576  0.87338  1.0000
  H   H10       1.0  0.48027  0.17423  0.12662  1.0000
  H   H11       1.0  0.28265  0.88978  0.93695  1.0000
  H   H12       1.0  0.71735  0.11022  0.06305  1.0000
  H   H13       1.0  0.34229  0.39346  0.87642  1.0000
  H   H14       1.0  0.65772  0.60653  0.12358  1.0000
  H   H15       1.0  0.43421  0.17269  0.95532  1.0000
  H   H16       1.0  0.56578  0.82731  0.04468  1.0000
  H   H17       1.0  0.85267  0.44462  0.35860  1.0000
  H   H18       1.0  0.14734  0.55538  0.64140  1.0000
  H   H19       1.0  0.85510  0.25039  0.41479  1.0000
  H   H20       1.0  0.14491  0.74961  0.58521  1.0000
  H   H21       1.0  0.86905  0.33771  0.22270  1.0000
  H   H22       1.0  0.13096  0.66228  0.77730  1.0000
  H   H23       1.0  0.70266  0.26150  0.22748  1.0000
  H   H24       1.0  0.29734  0.73850  0.77252  1.0000
  C   C1        1.0  0.19542  0.66965  0.19849  1.0000
  C   C2        1.0  0.80457  0.33035  0.80151  1.0000
  C   C3        1.0  0.18190  0.89083  0.24633  1.0000
  C   C4        1.0  0.81810  0.10918  0.75367  1.0000
  C   C5        1.0  0.31162  0.08852  0.69402  1.0000
  C   C6        1.0  0.68838  0.91148  0.30598  1.0000
  C   C7        1.0  0.32828  0.23383  0.79968  1.0000
  C   C8        1.0  0.67172  0.76616  0.20032  1.0000
  N   N1        1.0  0.12671  0.95146  0.13834  1.0000
  N   N2        1.0  0.87329  0.04854  0.86166  1.0000
  N   N3        1.0  0.13702  0.81046  0.10852  1.0000
  N   N4        1.0  0.86298  0.18954  0.89148  1.0000
  N   N5        1.0  0.22985  0.49791  0.21469  1.0000
  N   N6        1.0  0.77015  0.50209  0.78531  1.0000
  N   N7        1.0  0.16872  0.47774  0.13164  1.0000
  N   N8        1.0  0.83128  0.52226  0.86836  1.0000
  N   N9        1.0  0.22508  0.71399  0.28735  1.0000
  N   N10       1.0  0.77491  0.28601  0.71264  1.0000
  N   N11       1.0  0.29423  0.59701  0.39394  1.0000
  N   N12       1.0  0.70576  0.40299  0.60606  1.0000
  N   N13       1.0  0.19250  0.98269  0.30840  1.0000
  N   N14       1.0  0.80750  0.01731  0.69160  1.0000
  N   N15       1.0  0.28085  0.34420  0.69487  1.0000
  N   N16       1.0  0.71915  0.65579  0.30513  1.0000
  N   N17       1.0  0.26842  0.25190  0.62857  1.0000
  N   N18       1.0  0.73158  0.74810  0.37142  1.0000
  N   N19       1.0  0.32948  0.94464  0.66790  1.0000
  N   N20       1.0  0.67052  0.05536  0.33210  1.0000
  N   N21       1.0  0.30918  0.98068  0.56044  1.0000
  N   N22       1.0  0.69082  0.01932  0.43956  1.0000
  N   N23       1.0  0.34941  0.07144  0.80289  1.0000
  N   N24       1.0  0.65059  0.92856  0.19711  1.0000
  N   N25       1.0  0.40747  0.92381  0.89805  1.0000
  N   N26       1.0  0.59253  0.07619  0.10196  1.0000
  N   N27       1.0  0.34015  0.27120  0.89299  1.0000
  N   N28       1.0  0.65985  0.72880  0.10702  1.0000
  O   O1        1.0  0.20322  0.31707  0.14360  1.0000
  O   O2        1.0  0.79679  0.68293  0.85640  1.0000
  O   O3        1.0  0.32636  0.84724  0.53383  1.0000
  O   O4        1.0  0.67365  0.15276  0.46617  1.0000
  O   O5        1.0  0.94311  0.32157  0.39791  1.0000
  O   O6        1.0  0.05689  0.67843  0.60209  1.0000
  O   O7        1.0  0.76455  0.34797  0.17594  1.0000
  O   O8        1.0  0.23544  0.65203  0.82407  1.0000
