data_image0
_chemical_formula_structural       Co2H40C28S2N4Cl4O4
_chemical_formula_sum              "Co2 H40 C28 S2 N4 Cl4 O4"
_cell_length_a       8.51458
_cell_length_b       8.51472
_cell_length_c       11.9869
_cell_angle_alpha    101.554
_cell_angle_beta     101.552
_cell_angle_gamma    97.4742

_space_group_name_H-M_alt    "P 1"
_space_group_IT_number       1

loop_
  _space_group_symop_operation_xyz
  'x, y, z'

loop_
  _atom_site_type_symbol
  _atom_site_label
  _atom_site_symmetry_multiplicity
  _atom_site_fract_x
  _atom_site_fract_y
  _atom_site_fract_z
  _atom_site_occupancy
  Co  Co1       1.0  0.50000  0.50000  0.00000  1.0000
  Co  Co2       1.0  0.50000  0.50000  0.50000  1.0000
  H   H1        1.0  0.64899  0.62198  0.82913  1.0000
  H   H2        1.0  0.37802  0.35101  0.67087  1.0000
  H   H3        1.0  0.35100  0.37801  0.17087  1.0000
  H   H4        1.0  0.62199  0.64900  0.32913  1.0000
  H   H5        1.0  0.58024  0.28040  0.15215  1.0000
  H   H6        1.0  0.71962  0.41976  0.34785  1.0000
  H   H7        1.0  0.41975  0.71960  0.84784  1.0000
  H   H8        1.0  0.28039  0.58025  0.65215  1.0000
  H   H9        1.0  0.60754  0.30198  0.81453  1.0000
  H   H10       1.0  0.69802  0.39247  0.68547  1.0000
  H   H11       1.0  0.39245  0.69802  0.18548  1.0000
  H   H12       1.0  0.30199  0.60753  0.31453  1.0000
  H   H13       1.0  0.74981  0.06052  0.79321  1.0000
  H   H14       1.0  0.93947  0.25019  0.70678  1.0000
  H   H15       1.0  0.25019  0.93948  0.20679  1.0000
  H   H16       1.0  0.06053  0.74980  0.29322  1.0000
  H   H17       1.0  0.81444  0.93226  0.96327  1.0000
  H   H18       1.0  0.06774  0.18555  0.53673  1.0000
  H   H19       1.0  0.18557  0.06774  0.03674  1.0000
  H   H20       1.0  0.93225  0.81444  0.46327  1.0000
  H   H21       1.0  0.69562  0.88947  0.14948  1.0000
  H   H22       1.0  0.11054  0.30437  0.35052  1.0000
  H   H23       1.0  0.30438  0.11053  0.85052  1.0000
  H   H24       1.0  0.88946  0.69563  0.64948  1.0000
  H   H25       1.0  0.65988  0.06886  0.23840  1.0000
  H   H26       1.0  0.93117  0.34012  0.26160  1.0000
  H   H27       1.0  0.34012  0.93114  0.76160  1.0000
  H   H28       1.0  0.06883  0.65988  0.73839  1.0000
  H   H29       1.0  0.90133  0.66100  0.03343  1.0000
  H   H30       1.0  0.33899  0.09867  0.46657  1.0000
  H   H31       1.0  0.09866  0.33899  0.96656  1.0000
  H   H32       1.0  0.66103  0.90135  0.53344  1.0000
  H   H33       1.0  0.91696  0.70069  0.89426  1.0000
  H   H34       1.0  0.29932  0.08305  0.60576  1.0000
  H   H35       1.0  0.08303  0.29930  0.10574  1.0000
  H   H36       1.0  0.70069  0.91696  0.39425  1.0000
  H   H37       1.0  0.88724  0.49551  0.91170  1.0000
  H   H38       1.0  0.50449  0.11277  0.58829  1.0000
  H   H39       1.0  0.11275  0.50447  0.08829  1.0000
  H   H40       1.0  0.49553  0.88724  0.41172  1.0000
  C   C1        1.0  0.62202  0.23040  0.07473  1.0000
  C   C2        1.0  0.76961  0.37798  0.42527  1.0000
  C   C3        1.0  0.37798  0.76959  0.92528  1.0000
  C   C4        1.0  0.23039  0.62202  0.57473  1.0000
  C   C5        1.0  0.63778  0.24151  0.88556  1.0000
  C   C6        1.0  0.75849  0.36222  0.61443  1.0000
  C   C7        1.0  0.36221  0.75849  0.11444  1.0000
  C   C8        1.0  0.24151  0.63778  0.38557  1.0000
  C   C9        1.0  0.71658  0.10803  0.87493  1.0000
  C   C10       1.0  0.89196  0.28342  0.62507  1.0000
  C   C11       1.0  0.28342  0.89197  0.12507  1.0000
  C   C12       1.0  0.10804  0.71658  0.37493  1.0000
  C   C13       1.0  0.75135  0.03586  0.96927  1.0000
  C   C14       1.0  0.96415  0.24865  0.53073  1.0000
  C   C15       1.0  0.24865  0.96415  0.03073  1.0000
  C   C16       1.0  0.03585  0.75135  0.46927  1.0000
  C   C17       1.0  0.70146  0.09694  0.07142  1.0000
  C   C18       1.0  0.90306  0.29853  0.42858  1.0000
  C   C19       1.0  0.29854  0.90306  0.92858  1.0000
  C   C20       1.0  0.09694  0.70147  0.57142  1.0000
  C   C21       1.0  0.73052  0.02283  0.17543  1.0000
  C   C22       1.0  0.97718  0.26948  0.32457  1.0000
  C   C23       1.0  0.26948  0.97717  0.82458  1.0000
  C   C24       1.0  0.02282  0.73053  0.67543  1.0000
  C   C25       1.0  0.85663  0.61724  0.93832  1.0000
  C   C26       1.0  0.38276  0.14337  0.56168  1.0000
  C   C27       1.0  0.14336  0.38275  0.06167  1.0000
  C   C28       1.0  0.61726  0.85664  0.43833  1.0000
  S   S1        1.0  0.94433  0.05567  0.24999  1.0000
  S   S2        1.0  0.05567  0.94433  0.75001  1.0000
  N   N1        1.0  0.59255  0.30416  0.98453  1.0000
  N   N2        1.0  0.69584  0.40746  0.51547  1.0000
  N   N3        1.0  0.40744  0.69584  0.01547  1.0000
  N   N4        1.0  0.30416  0.59255  0.48453  1.0000
  Cl  Cl1       1.0  0.31107  0.39705  0.82625  1.0000
  Cl  Cl2       1.0  0.60294  0.68893  0.67375  1.0000
  Cl  Cl3       1.0  0.68892  0.60295  0.17375  1.0000
  Cl  Cl4       1.0  0.39707  0.31107  0.32625  1.0000
  O   O1        1.0  0.68423  0.61258  0.91151  1.0000
  O   O2        1.0  0.38742  0.31578  0.58849  1.0000
  O   O3        1.0  0.31576  0.38741  0.08849  1.0000
  O   O4        1.0  0.61260  0.68424  0.41151  1.0000
