data_image0
_chemical_formula_structural       Ag4H24C32N12
_chemical_formula_sum              "Ag4 H24 C32 N12"
_cell_length_a       6.42019
_cell_length_b       8.54208
_cell_length_c       13.6727
_cell_angle_alpha    89.9986
_cell_angle_beta     90.0017
_cell_angle_gamma    95.4989

_space_group_name_H-M_alt    "P 1"
_space_group_IT_number       1

loop_
  _space_group_symop_operation_xyz
  'x, y, z'

loop_
  _atom_site_type_symbol
  _atom_site_label
  _atom_site_symmetry_multiplicity
  _atom_site_fract_x
  _atom_site_fract_y
  _atom_site_fract_z
  _atom_site_occupancy
  Ag  Ag1       1.0  0.15764  0.73139  0.45891  1.0000
  Ag  Ag2       1.0  0.34240  0.76859  0.95890  1.0000
  Ag  Ag3       1.0  0.84239  0.26859  0.54110  1.0000
  Ag  Ag4       1.0  0.65756  0.23141  0.04109  1.0000
  H   H1        1.0  0.89336  0.89580  0.61109  1.0000
  H   H2        1.0  0.60671  0.60420  0.11111  1.0000
  H   H3        1.0  0.10666  0.10418  0.38892  1.0000
  H   H4        1.0  0.39326  0.39580  0.88888  1.0000
  H   H5        1.0  0.46614  0.91347  0.60071  1.0000
  H   H6        1.0  0.03393  0.58652  0.10072  1.0000
  H   H7        1.0  0.53389  0.08652  0.39929  1.0000
  H   H8        1.0  0.96603  0.41348  0.89928  1.0000
  H   H9        1.0  0.31137  0.37101  0.20137  1.0000
  H   H10       1.0  0.18862  0.12899  0.70137  1.0000
  H   H11       1.0  0.68867  0.62900  0.79863  1.0000
  H   H12       1.0  0.81134  0.87099  0.29861  1.0000
  H   H13       1.0  0.31110  0.57218  0.33155  1.0000
  H   H14       1.0  0.18891  0.92783  0.83155  1.0000
  H   H15       1.0  0.68893  0.42783  0.66846  1.0000
  H   H16       1.0  0.81107  0.07216  0.16844  1.0000
  H   H17       1.0  0.96253  0.50644  0.38202  1.0000
  H   H18       1.0  0.53748  0.99355  0.88202  1.0000
  H   H19       1.0  0.03750  0.49356  0.61798  1.0000
  H   H20       1.0  0.46251  0.00647  0.11799  1.0000
  H   H21       1.0  0.93495  0.31072  0.24911  1.0000
  H   H22       1.0  0.56503  0.18928  0.74911  1.0000
  H   H23       1.0  0.06507  0.68928  0.75089  1.0000
  H   H24       1.0  0.43493  0.81072  0.25088  1.0000
  C   C1        1.0  0.65174  0.67820  0.44659  1.0000
  C   C2        1.0  0.84828  0.82179  0.94660  1.0000
  C   C3        1.0  0.34828  0.32179  0.55341  1.0000
  C   C4        1.0  0.15170  0.17823  0.05341  1.0000
  C   C5        1.0  0.77877  0.83566  0.56250  1.0000
  C   C6        1.0  0.72128  0.66435  0.06250  1.0000
  C   C7        1.0  0.22126  0.16433  0.43751  1.0000
  C   C8        1.0  0.27868  0.33567  0.93749  1.0000
  C   C9        1.0  0.56480  0.84448  0.55721  1.0000
  C   C10       1.0  0.93523  0.65552  0.05722  1.0000
  C   C11       1.0  0.43521  0.15551  0.44280  1.0000
  C   C12       1.0  0.06472  0.34449  0.94279  1.0000
  C   C13       1.0  0.45369  0.40442  0.24323  1.0000
  C   C14       1.0  0.04632  0.09557  0.74323  1.0000
  C   C15       1.0  0.54634  0.59558  0.75677  1.0000
  C   C16       1.0  0.95368  0.90442  0.25677  1.0000
  C   C17       1.0  0.45448  0.51757  0.31632  1.0000
  C   C18       1.0  0.04551  0.98243  0.81632  1.0000
  C   C19       1.0  0.54555  0.48243  0.68368  1.0000
  C   C20       1.0  0.95446  0.01757  0.18367  1.0000
  C   C21       1.0  0.63942  0.56112  0.36911  1.0000
  C   C22       1.0  0.86059  0.93888  0.86911  1.0000
  C   C23       1.0  0.36062  0.43887  0.63089  1.0000
  C   C24       1.0  0.13938  0.06114  0.13089  1.0000
  C   C25       1.0  0.81447  0.48226  0.34344  1.0000
  C   C26       1.0  0.68554  0.01773  0.84344  1.0000
  C   C27       1.0  0.18557  0.51774  0.65656  1.0000
  C   C28       1.0  0.31444  0.98229  0.15657  1.0000
  C   C29       1.0  0.79906  0.37165  0.26895  1.0000
  C   C30       1.0  0.70093  0.12834  0.76894  1.0000
  C   C31       1.0  0.20096  0.62834  0.73105  1.0000
  C   C32       1.0  0.29905  0.87167  0.23106  1.0000
  N   N1        1.0  0.48559  0.74626  0.48439  1.0000
  N   N2        1.0  0.01445  0.75374  0.98440  1.0000
  N   N3        1.0  0.51443  0.25373  0.51561  1.0000
  N   N4        1.0  0.98555  0.24627  0.01561  1.0000
  N   N5        1.0  0.83307  0.73134  0.49313  1.0000
  N   N6        1.0  0.66698  0.76867  0.99314  1.0000
  N   N7        1.0  0.16696  0.26865  0.50688  1.0000
  N   N8        1.0  0.33299  0.23134  0.00686  1.0000
  N   N9        1.0  0.62256  0.33142  0.21818  1.0000
  N   N10       1.0  0.87744  0.16857  0.71817  1.0000
  N   N11       1.0  0.37747  0.66858  0.78182  1.0000
  N   N12       1.0  0.12254  0.83142  0.28182  1.0000
