data_image0
_chemical_formula_structural       Cu4H24C32N12
_chemical_formula_sum              "Cu4 H24 C32 N12"
_cell_length_a       5.92506
_cell_length_b       9.18325
_cell_length_c       12.8081
_cell_angle_alpha    90.001
_cell_angle_beta     89.9995
_cell_angle_gamma    93.8868

_space_group_name_H-M_alt    "P 1"
_space_group_IT_number       1

loop_
  _space_group_symop_operation_xyz
  'x, y, z'

loop_
  _atom_site_type_symbol
  _atom_site_label
  _atom_site_symmetry_multiplicity
  _atom_site_fract_x
  _atom_site_fract_y
  _atom_site_fract_z
  _atom_site_occupancy
  Cu  Cu1       1.0  0.89802  0.26508  0.05848  1.0000
  Cu  Cu2       1.0  0.60199  0.23490  0.55848  1.0000
  Cu  Cu3       1.0  0.10200  0.73492  0.94152  1.0000
  Cu  Cu4       1.0  0.39800  0.76509  0.44151  1.0000
  H   H1        1.0  0.06705  0.50193  0.11464  1.0000
  H   H2        1.0  0.43297  0.99806  0.61463  1.0000
  H   H3        1.0  0.93295  0.49806  0.88536  1.0000
  H   H4        1.0  0.56703  0.00195  0.38537  1.0000
  H   H5        1.0  0.61205  0.10715  0.89708  1.0000
  H   H6        1.0  0.88794  0.39283  0.39710  1.0000
  H   H7        1.0  0.38793  0.89284  0.10292  1.0000
  H   H8        1.0  0.11207  0.60718  0.60290  1.0000
  H   H9        1.0  0.14862  0.12406  0.88522  1.0000
  H   H10       1.0  0.35137  0.37592  0.38523  1.0000
  H   H11       1.0  0.85135  0.87593  0.11478  1.0000
  H   H12       1.0  0.64864  0.62409  0.61478  1.0000
  H   H13       1.0  0.74622  0.60571  0.32757  1.0000
  H   H14       1.0  0.75380  0.89428  0.82756  1.0000
  H   H15       1.0  0.25379  0.39429  0.67244  1.0000
  H   H16       1.0  0.24620  0.10571  0.17245  1.0000
  H   H17       1.0  0.08096  0.68041  0.25925  1.0000
  H   H18       1.0  0.41906  0.81959  0.75923  1.0000
  H   H19       1.0  0.91903  0.31959  0.74076  1.0000
  H   H20       1.0  0.58094  0.18041  0.24077  1.0000
  H   H21       1.0  0.75831  0.41773  0.18898  1.0000
  H   H22       1.0  0.74172  0.08226  0.68899  1.0000
  H   H23       1.0  0.24171  0.58227  0.81102  1.0000
  H   H24       1.0  0.25826  0.91774  0.31102  1.0000
  C   C1        1.0  0.40174  0.32893  0.05898  1.0000
  C   C2        1.0  0.09828  0.17106  0.55898  1.0000
  C   C3        1.0  0.59827  0.67107  0.94102  1.0000
  C   C4        1.0  0.90171  0.82894  0.44102  1.0000
  C   C5        1.0  0.21900  0.51706  0.16250  1.0000
  C   C6        1.0  0.28103  0.98293  0.66249  1.0000
  C   C7        1.0  0.78104  0.48293  0.83748  1.0000
  C   C8        1.0  0.71896  0.01707  0.33750  1.0000
  C   C9        1.0  0.50260  0.17232  0.94281  1.0000
  C   C10       1.0  0.99741  0.32768  0.44282  1.0000
  C   C11       1.0  0.49741  0.82769  0.05719  1.0000
  C   C12       1.0  0.00260  0.67232  0.55717  1.0000
  C   C13       1.0  0.40947  0.43826  0.14020  1.0000
  C   C14       1.0  0.09056  0.06173  0.64021  1.0000
  C   C15       1.0  0.59063  0.56172  0.85981  1.0000
  C   C16       1.0  0.90937  0.93827  0.35979  1.0000
  C   C17       1.0  0.27044  0.18122  0.93641  1.0000
  C   C18       1.0  0.22954  0.31878  0.43641  1.0000
  C   C19       1.0  0.72956  0.81878  0.06359  1.0000
  C   C20       1.0  0.77044  0.68122  0.56359  1.0000
  C   C21       1.0  0.59786  0.57810  0.27911  1.0000
  C   C22       1.0  0.90214  0.92190  0.77911  1.0000
  C   C23       1.0  0.40217  0.42192  0.72089  1.0000
  C   C24       1.0  0.09784  0.07809  0.22090  1.0000
  C   C25       1.0  0.22771  0.61894  0.24212  1.0000
  C   C26       1.0  0.27232  0.88105  0.74212  1.0000
  C   C27       1.0  0.77232  0.38104  0.75787  1.0000
  C   C28       1.0  0.72767  0.11896  0.25788  1.0000
  C   C29       1.0  0.60351  0.47353  0.20125  1.0000
  C   C30       1.0  0.89649  0.02647  0.70126  1.0000
  C   C31       1.0  0.39650  0.52648  0.79875  1.0000
  C   C32       1.0  0.10350  0.97353  0.29874  1.0000
  N   N1        1.0  0.58559  0.26471  0.01975  1.0000
  N   N2        1.0  0.91444  0.23528  0.51977  1.0000
  N   N3        1.0  0.41443  0.73531  0.98024  1.0000
  N   N4        1.0  0.08556  0.76472  0.48023  1.0000
  N   N5        1.0  0.20610  0.27910  0.00961  1.0000
  N   N6        1.0  0.29390  0.22089  0.50961  1.0000
  N   N7        1.0  0.79390  0.72090  0.99039  1.0000
  N   N8        1.0  0.70608  0.77911  0.49040  1.0000
  N   N9        1.0  0.41297  0.65045  0.30157  1.0000
  N   N10       1.0  0.08703  0.84955  0.80156  1.0000
  N   N11       1.0  0.58703  0.34955  0.69843  1.0000
  N   N12       1.0  0.91295  0.15044  0.19843  1.0000
