data_image0
_chemical_formula_structural       Zn2H22C28N14O12
_chemical_formula_sum              "Zn2 H22 C28 N14 O12"
_cell_length_a       9.27926
_cell_length_b       9.75304
_cell_length_c       11.1499
_cell_angle_alpha    87.2849
_cell_angle_beta     83.6986
_cell_angle_gamma    65.7267

_space_group_name_H-M_alt    "P 1"
_space_group_IT_number       1

loop_
  _space_group_symop_operation_xyz
  'x, y, z'

loop_
  _atom_site_type_symbol
  _atom_site_label
  _atom_site_symmetry_multiplicity
  _atom_site_fract_x
  _atom_site_fract_y
  _atom_site_fract_z
  _atom_site_occupancy
  Zn  Zn1       1.0  0.62037  0.99883  0.30870  1.0000
  Zn  Zn2       1.0  0.37963  0.00119  0.69130  1.0000
  H   H1        1.0  0.90319  0.21648  0.85002  1.0000
  H   H2        1.0  0.09683  0.78350  0.14997  1.0000
  H   H3        1.0  0.82049  0.34809  0.97091  1.0000
  H   H4        1.0  0.17954  0.65190  0.02908  1.0000
  H   H5        1.0  0.54435  0.40072  0.91632  1.0000
  H   H6        1.0  0.45567  0.59928  0.08369  1.0000
  H   H7        1.0  0.66123  0.44397  0.79619  1.0000
  H   H8        1.0  0.33879  0.55601  0.20380  1.0000
  H   H9        1.0  0.82802  0.81732  0.05120  1.0000
  H   H10       1.0  0.17198  0.18267  0.94881  1.0000
  H   H11       1.0  0.65287  0.27089  0.15464  1.0000
  H   H12       1.0  0.34715  0.72911  0.84535  1.0000
  H   H13       1.0  0.72400  0.00857  0.56873  1.0000
  H   H14       1.0  0.27600  0.99142  0.43126  1.0000
  H   H15       1.0  0.39802  0.25358  0.85573  1.0000
  H   H16       1.0  0.60199  0.74643  0.14427  1.0000
  H   H17       1.0  0.11398  0.49148  0.26999  1.0000
  H   H18       1.0  0.88598  0.50853  0.73002  1.0000
  H   H19       1.0  0.96901  0.78338  0.57909  1.0000
  H   H20       1.0  0.03098  0.21664  0.42092  1.0000
  H   H21       1.0  0.40916  0.38496  0.56218  1.0000
  H   H22       1.0  0.59083  0.61504  0.43782  1.0000
  C   C1        1.0  0.79950  0.26918  0.91558  1.0000
  C   C2        1.0  0.20052  0.73079  0.08441  1.0000
  C   C3        1.0  0.65000  0.35221  0.85143  1.0000
  C   C4        1.0  0.35000  0.64777  0.14856  1.0000
  C   C5        1.0  0.79848  0.93700  0.04844  1.0000
  C   C6        1.0  0.20153  0.06300  0.95156  1.0000
  C   C7        1.0  0.70938  0.16602  0.10501  1.0000
  C   C8        1.0  0.29063  0.83398  0.89497  1.0000
  C   C9        1.0  0.66859  0.08528  0.64435  1.0000
  C   C10       1.0  0.33140  0.91471  0.35565  1.0000
  C   C11       1.0  0.50130  0.20665  0.79062  1.0000
  C   C12       1.0  0.49869  0.79336  0.20938  1.0000
  C   C13       1.0  0.27542  0.42495  0.40765  1.0000
  C   C14       1.0  0.72456  0.57505  0.59235  1.0000
  C   C15       1.0  0.13661  0.51999  0.35725  1.0000
  C   C16       1.0  0.86337  0.48001  0.64275  1.0000
  C   C17       1.0  0.02713  0.65042  0.41618  1.0000
  C   C18       1.0  0.97286  0.34959  0.58382  1.0000
  C   C19       1.0  0.05304  0.68389  0.53008  1.0000
  C   C20       1.0  0.94695  0.31612  0.46993  1.0000
  C   C21       1.0  0.18981  0.58608  0.58037  1.0000
  C   C22       1.0  0.81016  0.41393  0.41964  1.0000
  C   C23       1.0  0.30329  0.45840  0.52076  1.0000
  C   C24       1.0  0.69669  0.54160  0.47924  1.0000
  C   C25       1.0  0.39105  0.28892  0.33727  1.0000
  C   C26       1.0  0.60894  0.71109  0.66272  1.0000
  C   C27       1.0  0.88392  0.75121  0.35482  1.0000
  C   C28       1.0  0.11607  0.24880  0.64518  1.0000
  N   N1        1.0  0.78422  0.15121  0.99347  1.0000
  N   N2        1.0  0.21580  0.84878  0.00652  1.0000
  N   N3        1.0  0.84062  0.00598  0.95485  1.0000
  N   N4        1.0  0.15940  0.99400  0.04515  1.0000
  N   N5        1.0  0.71701  0.03159  0.14314  1.0000
  N   N6        1.0  0.28298  0.96842  0.85685  1.0000
  N   N7        1.0  0.62210  0.24936  0.77677  1.0000
  N   N8        1.0  0.37791  0.75063  0.22323  1.0000
  N   N9        1.0  0.73020  0.17332  0.68411  1.0000
  N   N10       1.0  0.26981  0.82667  0.31589  1.0000
  N   N11       1.0  0.52695  0.10257  0.70774  1.0000
  N   N12       1.0  0.47304  0.89744  0.29226  1.0000
  N   N13       1.0  0.21213  0.61571  0.70258  1.0000
  N   N14       1.0  0.78788  0.38428  0.29743  1.0000
  O   O1        1.0  0.50006  0.18954  0.39735  1.0000
  O   O2        1.0  0.49992  0.81046  0.60265  1.0000
  O   O3        1.0  0.37619  0.28000  0.22817  1.0000
  O   O4        1.0  0.62381  0.72003  0.77182  1.0000
  O   O5        1.0  0.79496  0.87769  0.40838  1.0000
  O   O6        1.0  0.20504  0.12233  0.59163  1.0000
  O   O7        1.0  0.85876  0.71064  0.25704  1.0000
  O   O8        1.0  0.14123  0.28939  0.74296  1.0000
  O   O9        1.0  0.09676  0.70608  0.76586  1.0000
  O   O10       1.0  0.90326  0.29393  0.23414  1.0000
  O   O11       1.0  0.34681  0.54690  0.73825  1.0000
  O   O12       1.0  0.65320  0.45308  0.26175  1.0000
