data_image0
_chemical_formula_structural       Zn2H40C32N4O12
_chemical_formula_sum              "Zn2 H40 C32 N4 O12"
_cell_length_a       8.76564
_cell_length_b       9.45385
_cell_length_c       9.91324
_cell_angle_alpha    104.593
_cell_angle_beta     90
_cell_angle_gamma    89.9999

_space_group_name_H-M_alt    "P 1"
_space_group_IT_number       1

loop_
  _space_group_symop_operation_xyz
  'x, y, z'

loop_
  _atom_site_type_symbol
  _atom_site_label
  _atom_site_symmetry_multiplicity
  _atom_site_fract_x
  _atom_site_fract_y
  _atom_site_fract_z
  _atom_site_occupancy
  Zn  Zn1       1.0  1.00000  1.00000  1.00000  1.0000
  Zn  Zn2       1.0  0.50000  0.50000  0.50000  1.0000
  H   H1        1.0  0.52611  0.97127  0.80752  1.0000
  H   H2        1.0  0.02612  0.52873  0.69248  1.0000
  H   H3        1.0  0.47389  0.02874  0.19249  1.0000
  H   H4        1.0  0.97389  0.47126  0.30751  1.0000
  H   H5        1.0  0.36909  0.08653  0.80339  1.0000
  H   H6        1.0  0.86909  0.41348  0.69661  1.0000
  H   H7        1.0  0.63091  0.91348  0.19661  1.0000
  H   H8        1.0  0.13091  0.58652  0.30339  1.0000
  H   H9        1.0  0.44617  0.16594  0.03369  1.0000
  H   H10       1.0  0.94617  0.33407  0.46631  1.0000
  H   H11       1.0  0.55383  0.83407  0.96631  1.0000
  H   H12       1.0  0.05383  0.66593  0.53369  1.0000
  H   H13       1.0  0.53207  0.29642  0.96220  1.0000
  H   H14       1.0  0.03208  0.20358  0.53781  1.0000
  H   H15       1.0  0.46793  0.70358  0.03781  1.0000
  H   H16       1.0  0.96793  0.79642  0.46219  1.0000
  H   H17       1.0  0.88302  0.17225  0.20574  1.0000
  H   H18       1.0  0.38302  0.32775  0.29426  1.0000
  H   H19       1.0  0.11698  0.82775  0.79426  1.0000
  H   H20       1.0  0.61698  0.67225  0.70574  1.0000
  H   H21       1.0  0.05778  0.17421  0.26589  1.0000
  H   H22       1.0  0.55778  0.32579  0.23411  1.0000
  H   H23       1.0  0.94222  0.82580  0.73411  1.0000
  H   H24       1.0  0.44222  0.67421  0.76589  1.0000
  H   H25       1.0  0.43549  0.33319  0.72362  1.0000
  H   H26       1.0  0.93549  0.16681  0.77638  1.0000
  H   H27       1.0  0.56451  0.66681  0.27638  1.0000
  H   H28       1.0  0.06451  0.83319  0.22362  1.0000
  H   H29       1.0  0.71274  0.94303  0.63072  1.0000
  H   H30       1.0  0.21274  0.55697  0.86929  1.0000
  H   H31       1.0  0.28726  0.05697  0.36929  1.0000
  H   H32       1.0  0.78726  0.44303  0.13071  1.0000
  H   H33       1.0  0.81319  0.02241  0.42171  1.0000
  H   H34       1.0  0.31319  0.47759  0.07829  1.0000
  H   H35       1.0  0.18680  0.97759  0.57829  1.0000
  H   H36       1.0  0.68681  0.52241  0.92171  1.0000
  H   H37       1.0  0.71477  0.25305  0.37725  1.0000
  H   H38       1.0  0.21476  0.24695  0.12276  1.0000
  H   H39       1.0  0.28523  0.74695  0.62276  1.0000
  H   H40       1.0  0.78524  0.75305  0.87724  1.0000
  C   C1        1.0  0.49391  0.08501  0.81459  1.0000
  C   C2        1.0  0.99392  0.41499  0.68541  1.0000
  C   C3        1.0  0.50608  0.91499  0.18541  1.0000
  C   C4        1.0  0.00608  0.58501  0.31459  1.0000
  C   C5        1.0  0.53467  0.17932  0.95940  1.0000
  C   C6        1.0  0.03468  0.32069  0.54060  1.0000
  C   C7        1.0  0.46533  0.82069  0.04060  1.0000
  C   C8        1.0  0.96532  0.67931  0.45940  1.0000
  C   C9        1.0  0.68611  0.14778  0.02102  1.0000
  C   C10       1.0  0.18611  0.35222  0.47898  1.0000
  C   C11       1.0  0.31389  0.85222  0.97898  1.0000
  C   C12       1.0  0.81389  0.64778  0.52102  1.0000
  C   C13       1.0  0.51980  0.26025  0.66094  1.0000
  C   C14       1.0  0.01980  0.23975  0.83906  1.0000
  C   C15       1.0  0.48020  0.73976  0.33906  1.0000
  C   C16       1.0  0.98020  0.76024  0.16094  1.0000
  C   C17       1.0  0.56524  0.13126  0.69427  1.0000
  C   C18       1.0  0.06524  0.36875  0.80574  1.0000
  C   C19       1.0  0.43476  0.86874  0.30574  1.0000
  C   C20       1.0  0.93476  0.63126  0.19426  1.0000
  C   C21       1.0  0.67405  0.04434  0.60804  1.0000
  C   C22       1.0  0.17405  0.45566  0.89197  1.0000
  C   C23       1.0  0.32595  0.95566  0.39197  1.0000
  C   C24       1.0  0.82595  0.54434  0.10803  1.0000
  C   C25       1.0  0.72961  0.08706  0.49274  1.0000
  C   C26       1.0  0.22961  0.41294  0.00727  1.0000
  C   C27       1.0  0.27039  0.91294  0.50727  1.0000
  C   C28       1.0  0.77039  0.58706  0.99273  1.0000
  C   C29       1.0  0.67608  0.21615  0.46680  1.0000
  C   C30       1.0  0.17608  0.28385  0.03320  1.0000
  C   C31       1.0  0.32392  0.78384  0.53320  1.0000
  C   C32       1.0  0.82392  0.71615  0.96680  1.0000
  N   N1        1.0  0.57375  0.30198  0.54989  1.0000
  N   N2        1.0  0.07375  0.19802  0.95011  1.0000
  N   N3        1.0  0.42625  0.69802  0.45011  1.0000
  N   N4        1.0  0.92625  0.80198  0.04989  1.0000
  O   O1        1.0  0.77038  0.04680  0.95073  1.0000
  O   O2        1.0  0.27038  0.45320  0.54927  1.0000
  O   O3        1.0  0.22962  0.95320  0.04927  1.0000
  O   O4        1.0  0.72962  0.54680  0.45073  1.0000
  O   O5        1.0  0.71648  0.22627  0.14363  1.0000
  O   O6        1.0  0.21648  0.27373  0.35637  1.0000
  O   O7        1.0  0.28352  0.77373  0.85637  1.0000
  O   O8        1.0  0.78352  0.72627  0.64363  1.0000
  O   O9        1.0  0.97263  0.11107  0.21840  1.0000
  O   O10       1.0  0.47262  0.38892  0.28160  1.0000
  O   O11       1.0  0.02738  0.88893  0.78160  1.0000
  O   O12       1.0  0.52737  0.61108  0.71840  1.0000
