data_image0
_chemical_formula_structural       Ag2H16C16N2O4
_chemical_formula_sum              "Ag2 H16 C16 N2 O4"
_cell_length_a       4.81025
_cell_length_b       7.9403
_cell_length_c       11.6886
_cell_angle_alpha    99.1163
_cell_angle_beta     99.5585
_cell_angle_gamma    102.889

_space_group_name_H-M_alt    "P 1"
_space_group_IT_number       1

loop_
  _space_group_symop_operation_xyz
  'x, y, z'

loop_
  _atom_site_type_symbol
  _atom_site_label
  _atom_site_symmetry_multiplicity
  _atom_site_fract_x
  _atom_site_fract_y
  _atom_site_fract_z
  _atom_site_occupancy
  Ag  Ag1       1.0  0.74517  0.94626  0.91163  1.0000
  Ag  Ag2       1.0  0.25481  0.05374  0.08837  1.0000
  H   H1        1.0  0.52500  0.79315  0.29424  1.0000
  H   H2        1.0  0.47500  0.20685  0.70577  1.0000
  H   H3        1.0  0.75800  0.64894  0.28778  1.0000
  H   H4        1.0  0.24201  0.35107  0.71222  1.0000
  H   H5        1.0  0.19651  0.61467  0.10638  1.0000
  H   H6        1.0  0.80350  0.38533  0.89362  1.0000
  H   H7        1.0  0.41321  0.46471  0.09714  1.0000
  H   H8        1.0  0.58681  0.53529  0.90287  1.0000
  H   H9        1.0  0.81592  0.32238  0.07148  1.0000
  H   H10       1.0  0.18409  0.67762  0.92851  1.0000
  H   H11       1.0  0.43697  0.53292  0.40265  1.0000
  H   H12       1.0  0.56303  0.46706  0.59735  1.0000
  H   H13       1.0  0.10049  0.33265  0.49524  1.0000
  H   H14       1.0  0.89951  0.66733  0.50475  1.0000
  H   H15       1.0  0.62988  0.14053  0.36935  1.0000
  H   H16       1.0  0.37012  0.85946  0.63064  1.0000
  C   C1        1.0  0.76112  0.80768  0.15626  1.0000
  C   C2        1.0  0.23887  0.19234  0.84375  1.0000
  C   C3        1.0  0.59935  0.69990  0.23351  1.0000
  C   C4        1.0  0.40066  0.30011  0.76650  1.0000
  C   C5        1.0  0.33923  0.55402  0.16076  1.0000
  C   C6        1.0  0.66077  0.44599  0.83925  1.0000
  C   C7        1.0  0.89028  0.32855  0.16595  1.0000
  C   C8        1.0  0.10972  0.67145  0.83404  1.0000
  C   C9        1.0  0.15774  0.44355  0.22825  1.0000
  C   C10       1.0  0.84226  0.55645  0.77175  1.0000
  C   C11       1.0  0.23349  0.44530  0.34918  1.0000
  C   C12       1.0  0.76651  0.55469  0.65082  1.0000
  C   C13       1.0  0.04648  0.33442  0.40123  1.0000
  C   C14       1.0  0.95352  0.66557  0.59876  1.0000
  C   C15       1.0  0.78444  0.22701  0.33191  1.0000
  C   C16       1.0  0.21556  0.77298  0.66809  1.0000
  N   N1        1.0  0.70578  0.22514  0.21574  1.0000
  N   N2        1.0  0.29422  0.77486  0.78425  1.0000
  O   O1        1.0  0.61550  0.80656  0.05434  1.0000
  O   O2        1.0  0.38450  0.19344  0.94566  1.0000
  O   O3        1.0  0.02530  0.89053  0.19966  1.0000
  O   O4        1.0  0.97470  0.10949  0.80035  1.0000
