data_image0
_chemical_formula_structural       H32Pb2C44N4O12
_chemical_formula_sum              "H32 Pb2 C44 N4 O12"
_cell_length_a       7.96654
_cell_length_b       11.6952
_cell_length_c       12.0455
_cell_angle_alpha    119.043
_cell_angle_beta     97.2753
_cell_angle_gamma    89.9998

_space_group_name_H-M_alt    "P 1"
_space_group_IT_number       1

loop_
  _space_group_symop_operation_xyz
  'x, y, z'

loop_
  _atom_site_type_symbol
  _atom_site_label
  _atom_site_symmetry_multiplicity
  _atom_site_fract_x
  _atom_site_fract_y
  _atom_site_fract_z
  _atom_site_occupancy
  H   H1        1.0  0.41919  0.38364  0.31732  1.0000
  H   H2        1.0  0.08081  0.06632  0.68268  1.0000
  H   H3        1.0  0.58082  0.61637  0.68268  1.0000
  H   H4        1.0  0.91919  0.93368  0.31732  1.0000
  H   H5        1.0  0.56780  0.29907  0.37126  1.0000
  H   H6        1.0  0.93221  0.92781  0.62874  1.0000
  H   H7        1.0  0.43221  0.70093  0.62874  1.0000
  H   H8        1.0  0.06779  0.07219  0.37126  1.0000
  H   H9        1.0  0.62192  0.52327  0.47568  1.0000
  H   H10       1.0  0.87808  0.04760  0.52432  1.0000
  H   H11       1.0  0.37807  0.47673  0.52432  1.0000
  H   H12       1.0  0.12192  0.95240  0.47568  1.0000
  H   H13       1.0  0.84199  0.70200  0.61322  1.0000
  H   H14       1.0  0.65802  0.08879  0.38678  1.0000
  H   H15       1.0  0.15802  0.29800  0.38679  1.0000
  H   H16       1.0  0.34198  0.91121  0.61322  1.0000
  H   H17       1.0  0.10347  0.72324  0.53085  1.0000
  H   H18       1.0  0.39654  0.19238  0.46915  1.0000
  H   H19       1.0  0.89654  0.27676  0.46914  1.0000
  H   H20       1.0  0.60346  0.80762  0.53086  1.0000
  H   H21       1.0  0.27267  0.63955  0.34640  1.0000
  H   H22       1.0  0.22733  0.29316  0.65360  1.0000
  H   H23       1.0  0.72733  0.36044  0.65360  1.0000
  H   H24       1.0  0.77267  0.70684  0.34640  1.0000
  H   H25       1.0  0.30389  0.46961  0.12250  1.0000
  H   H26       1.0  0.19610  0.34710  0.87750  1.0000
  H   H27       1.0  0.69611  0.53039  0.87750  1.0000
  H   H28       1.0  0.80390  0.65290  0.12250  1.0000
  H   H29       1.0  0.08081  0.28013  0.00184  1.0000
  H   H30       1.0  0.41919  0.27829  0.99816  1.0000
  H   H31       1.0  0.91919  0.71987  0.99816  1.0000
  H   H32       1.0  0.58081  0.72171  0.00184  1.0000
  Pb  Pb1       1.0  0.25000  0.90411  1.00000  1.0000
  Pb  Pb2       1.0  0.75000  0.09589  1.00000  1.0000
  C   C1        1.0  0.41324  0.17711  0.18993  1.0000
  C   C2        1.0  0.08676  0.98718  0.81007  1.0000
  C   C3        1.0  0.58675  0.82289  0.81007  1.0000
  C   C4        1.0  0.91324  0.01282  0.18993  1.0000
  C   C5        1.0  0.51041  0.30678  0.28729  1.0000
  C   C6        1.0  0.98959  0.01949  0.71271  1.0000
  C   C7        1.0  0.48959  0.69322  0.71271  1.0000
  C   C8        1.0  0.01040  0.98051  0.28728  1.0000
  C   C9        1.0  0.75486  0.43826  0.31233  1.0000
  C   C10       1.0  0.74515  0.12592  0.68767  1.0000
  C   C11       1.0  0.24515  0.56174  0.68766  1.0000
  C   C12       1.0  0.25485  0.87408  0.31234  1.0000
  C   C13       1.0  0.73535  0.52972  0.43686  1.0000
  C   C14       1.0  0.76465  0.09286  0.56314  1.0000
  C   C15       1.0  0.26465  0.47028  0.56314  1.0000
  C   C16       1.0  0.23535  0.90714  0.43686  1.0000
  C   C17       1.0  0.86177  0.63179  0.51552  1.0000
  C   C18       1.0  0.63823  0.11627  0.48448  1.0000
  C   C19       1.0  0.13823  0.36821  0.48448  1.0000
  C   C20       1.0  0.36177  0.88373  0.51552  1.0000
  C   C21       1.0  0.00623  0.64452  0.46944  1.0000
  C   C22       1.0  0.49377  0.17509  0.53057  1.0000
  C   C23       1.0  0.99377  0.35548  0.53056  1.0000
  C   C24       1.0  0.50622  0.82492  0.46944  1.0000
  C   C25       1.0  0.03007  0.55272  0.34207  1.0000
  C   C26       1.0  0.46993  0.21065  0.65793  1.0000
  C   C27       1.0  0.96993  0.44728  0.65793  1.0000
  C   C28       1.0  0.53007  0.78935  0.34207  1.0000
  C   C29       1.0  0.17559  0.55970  0.28854  1.0000
  C   C30       1.0  0.32441  0.27116  0.71146  1.0000
  C   C31       1.0  0.82440  0.44030  0.71146  1.0000
  C   C32       1.0  0.67559  0.72884  0.28854  1.0000
  C   C33       1.0  0.19318  0.46540  0.16546  1.0000
  C   C34       1.0  0.30683  0.29994  0.83454  1.0000
  C   C35       1.0  0.80682  0.53460  0.83454  1.0000
  C   C36       1.0  0.69318  0.70006  0.16546  1.0000
  C   C37       1.0  0.06692  0.36102  0.09651  1.0000
  C   C38       1.0  0.43308  0.26450  0.90349  1.0000
  C   C39       1.0  0.93307  0.63898  0.90349  1.0000
  C   C40       1.0  0.56693  0.73549  0.09651  1.0000
  C   C41       1.0  0.90560  0.44625  0.26219  1.0000
  C   C42       1.0  0.59440  0.18406  0.73781  1.0000
  C   C43       1.0  0.09440  0.55375  0.73781  1.0000
  C   C44       1.0  0.40560  0.81594  0.26219  1.0000
  N   N1        1.0  0.92799  0.35134  0.14242  1.0000
  N   N2        1.0  0.57201  0.20893  0.85758  1.0000
  N   N3        1.0  0.07201  0.64865  0.85758  1.0000
  N   N4        1.0  0.42798  0.79107  0.14242  1.0000
  O   O1        1.0  0.43990  0.12342  0.07373  1.0000
  O   O2        1.0  0.06011  0.04969  0.92628  1.0000
  O   O3        1.0  0.56011  0.87658  0.92628  1.0000
  O   O4        1.0  0.93989  0.95031  0.07372  1.0000
  O   O5        1.0  0.30896  0.13193  0.23218  1.0000
  O   O6        1.0  0.19104  0.89975  0.76782  1.0000
  O   O7        1.0  0.69104  0.86807  0.76782  1.0000
  O   O8        1.0  0.80895  0.10025  0.23218  1.0000
  O   O9        1.0  0.63933  0.33714  0.23117  1.0000
  O   O10       1.0  0.86067  0.10597  0.76883  1.0000
  O   O11       1.0  0.36067  0.66286  0.76883  1.0000
  O   O12       1.0  0.13933  0.89403  0.23117  1.0000
