data_image0
_chemical_formula_structural       CoH32C34Br4N4O6
_chemical_formula_sum              "Co1 H32 C34 Br4 N4 O6"
_cell_length_a       9.17437
_cell_length_b       9.57212
_cell_length_c       11.2536
_cell_angle_alpha    99.0055
_cell_angle_beta     94.3226
_cell_angle_gamma    118.068

_space_group_name_H-M_alt    "P 1"
_space_group_IT_number       1

loop_
  _space_group_symop_operation_xyz
  'x, y, z'

loop_
  _atom_site_type_symbol
  _atom_site_label
  _atom_site_symmetry_multiplicity
  _atom_site_fract_x
  _atom_site_fract_y
  _atom_site_fract_z
  _atom_site_occupancy
  Co  Co1       1.0  0.50000  0.00000  1.00000  1.0000
  H   H1        1.0  0.20081  0.92943  0.04795  1.0000
  H   H2        1.0  0.79919  0.07058  0.95204  1.0000
  H   H3        1.0  0.15068  0.88289  0.89791  1.0000
  H   H4        1.0  0.84932  0.11711  0.10209  1.0000
  H   H5        1.0  0.03912  0.81075  0.33513  1.0000
  H   H6        1.0  0.96088  0.18925  0.66487  1.0000
  H   H7        1.0  0.88702  0.60885  0.32176  1.0000
  H   H8        1.0  0.11298  0.39115  0.67825  1.0000
  H   H9        1.0  0.11325  0.64375  0.49243  1.0000
  H   H10       1.0  0.88675  0.35625  0.50757  1.0000
  H   H11       1.0  0.80202  0.86490  0.55163  1.0000
  H   H12       1.0  0.19798  0.13509  0.44838  1.0000
  H   H13       1.0  0.36778  0.19202  0.11698  1.0000
  H   H14       1.0  0.63222  0.80799  0.88303  1.0000
  H   H15       1.0  0.82193  0.89893  0.35095  1.0000
  H   H16       1.0  0.17808  0.10108  0.64905  1.0000
  H   H17       1.0  0.66662  0.69759  0.34388  1.0000
  H   H18       1.0  0.33338  0.30241  0.65612  1.0000
  H   H19       1.0  0.78719  0.29397  0.95521  1.0000
  H   H20       1.0  0.21280  0.70603  0.04478  1.0000
  H   H21       1.0  0.90046  0.59113  0.02461  1.0000
  H   H22       1.0  0.09953  0.40887  0.97538  1.0000
  H   H23       1.0  0.87268  0.89021  0.77218  1.0000
  H   H24       1.0  0.12732  0.10978  0.22782  1.0000
  H   H25       1.0  0.17928  0.68580  0.71768  1.0000
  H   H26       1.0  0.82073  0.31420  0.28232  1.0000
  H   H27       1.0  0.46197  0.48259  0.19117  1.0000
  H   H28       1.0  0.53803  0.51742  0.80884  1.0000
  H   H29       1.0  0.67021  0.77984  0.14320  1.0000
  H   H30       1.0  0.32980  0.22016  0.85680  1.0000
  H   H31       1.0  0.87733  0.81564  0.14354  1.0000
  H   H32       1.0  0.12268  0.18437  0.85646  1.0000
  C   C1        1.0  0.39071  0.97657  0.24142  1.0000
  C   C2        1.0  0.60928  0.02344  0.75858  1.0000
  C   C3        1.0  0.44635  0.99037  0.37587  1.0000
  C   C4        1.0  0.55365  0.00963  0.62413  1.0000
  C   C5        1.0  0.69344  0.56477  0.11807  1.0000
  C   C6        1.0  0.30656  0.43524  0.88193  1.0000
  C   C7        1.0  0.92005  0.73405  0.36473  1.0000
  C   C8        1.0  0.07996  0.26595  0.63527  1.0000
  C   C9        1.0  0.52330  0.13912  0.46090  1.0000
  C   C10       1.0  0.47669  0.86088  0.53910  1.0000
  C   C11       1.0  0.05837  0.70058  0.55152  1.0000
  C   C12       1.0  0.94164  0.29942  0.44848  1.0000
  C   C13       1.0  0.88414  0.82031  0.58304  1.0000
  C   C14       1.0  0.11586  0.17968  0.41697  1.0000
  C   C15       1.0  0.57750  0.14859  0.58319  1.0000
  C   C16       1.0  0.42250  0.85141  0.41680  1.0000
  C   C17       1.0  0.48567  0.28383  0.09914  1.0000
  C   C18       1.0  0.51432  0.71617  0.90086  1.0000
  C   C19       1.0  0.78642  0.77175  0.31453  1.0000
  C   C20       1.0  0.21359  0.22826  0.68547  1.0000
  C   C21       1.0  0.72006  0.34093  0.00922  1.0000
  C   C22       1.0  0.27993  0.65907  0.99078  1.0000
  C   C23       1.0  0.95249  0.75225  0.50084  1.0000
  C   C24       1.0  0.04752  0.24775  0.49916  1.0000
  C   C25       1.0  0.78182  0.50698  0.04829  1.0000
  C   C26       1.0  0.21817  0.49302  0.95171  1.0000
  C   C27       1.0  0.92359  0.83430  0.70807  1.0000
  C   C28       1.0  0.07641  0.16570  0.29193  1.0000
  C   C29       1.0  0.09314  0.72106  0.67718  1.0000
  C   C30       1.0  0.90686  0.27893  0.32282  1.0000
  C   C31       1.0  0.53966  0.44718  0.13961  1.0000
  C   C32       1.0  0.46034  0.55282  0.86039  1.0000
  C   C33       1.0  0.75916  0.74084  0.17402  1.0000
  C   C34       1.0  0.24084  0.25917  0.82599  1.0000
  Br  Br1       1.0  0.55281  0.32839  0.40851  1.0000
  Br  Br2       1.0  0.44719  0.67161  0.59148  1.0000
  Br  Br3       1.0  0.69219  0.35248  0.69607  1.0000
  Br  Br4       1.0  0.30781  0.64753  0.30393  1.0000
  N   N1        1.0  0.57554  0.22897  0.03660  1.0000
  N   N2        1.0  0.42446  0.77103  0.96340  1.0000
  N   N3        1.0  0.02721  0.78691  0.75586  1.0000
  N   N4        1.0  0.97280  0.21308  0.24414  1.0000
  O   O1        1.0  0.23881  0.95871  0.97108  1.0000
  O   O2        1.0  0.76119  0.04129  0.02892  1.0000
  O   O3        1.0  0.24035  0.93856  0.20751  1.0000
  O   O4        1.0  0.75965  0.06144  0.79249  1.0000
  O   O5        1.0  0.50667  0.00334  0.17771  1.0000
  O   O6        1.0  0.49332  0.99666  0.82229  1.0000
