data_image0
_chemical_formula_structural       MnH32C34Br4N4O6
_chemical_formula_sum              "Mn1 H32 C34 Br4 N4 O6"
_cell_length_a       9.08996
_cell_length_b       9.62226
_cell_length_c       11.2835
_cell_angle_alpha    98.8637
_cell_angle_beta     94.6228
_cell_angle_gamma    118.325

_space_group_name_H-M_alt    "P 1"
_space_group_IT_number       1

loop_
  _space_group_symop_operation_xyz
  'x, y, z'

loop_
  _atom_site_type_symbol
  _atom_site_label
  _atom_site_symmetry_multiplicity
  _atom_site_fract_x
  _atom_site_fract_y
  _atom_site_fract_z
  _atom_site_occupancy
  Mn  Mn1       1.0  0.00000  0.00000  1.00000  1.0000
  H   H1        1.0  0.28348  0.06698  0.94264  1.0000
  H   H2        1.0  0.71652  0.93302  0.05735  1.0000
  H   H3        1.0  0.33568  0.12290  0.09666  1.0000
  H   H4        1.0  0.66433  0.87710  0.90334  1.0000
  H   H5        1.0  0.85065  0.19497  0.10345  1.0000
  H   H6        1.0  0.14936  0.80504  0.89655  1.0000
  H   H7        1.0  0.38461  0.61405  0.33872  1.0000
  H   H8        1.0  0.61540  0.38595  0.66128  1.0000
  H   H9        1.0  0.53482  0.81688  0.35320  1.0000
  H   H10       1.0  0.46518  0.18311  0.64680  1.0000
  H   H11       1.0  0.30895  0.87174  0.57556  1.0000
  H   H12       1.0  0.69105  0.12826  0.42444  1.0000
  H   H13       1.0  0.60889  0.64026  0.50328  1.0000
  H   H14       1.0  0.39110  0.35972  0.49672  1.0000
  H   H15       1.0  0.31029  0.89686  0.37493  1.0000
  H   H16       1.0  0.68971  0.10313  0.62507  1.0000
  H   H17       1.0  0.15707  0.69301  0.36441  1.0000
  H   H18       1.0  0.84293  0.30698  0.63559  1.0000
  H   H19       1.0  0.93828  0.48013  0.18504  1.0000
  H   H20       1.0  0.06173  0.51987  0.81496  1.0000
  H   H21       1.0  0.30794  0.31812  0.98426  1.0000
  H   H22       1.0  0.69207  0.68188  0.01575  1.0000
  H   H23       1.0  0.39076  0.89645  0.79418  1.0000
  H   H24       1.0  0.60924  0.10355  0.20582  1.0000
  H   H25       1.0  0.15560  0.78163  0.16689  1.0000
  H   H26       1.0  0.84442  0.21838  0.83312  1.0000
  H   H27       1.0  0.36812  0.82563  0.16758  1.0000
  H   H28       1.0  0.63189  0.17438  0.83242  1.0000
  H   H29       1.0  0.68559  0.68061  0.72751  1.0000
  H   H30       1.0  0.31440  0.31937  0.27250  1.0000
  H   H31       1.0  0.41666  0.60997  0.06611  1.0000
  H   H32       1.0  0.58336  0.39003  0.93390  1.0000
  C   C1        1.0  0.88669  0.97731  0.24317  1.0000
  C   C2        1.0  0.11329  0.02270  0.75683  1.0000
  C   C3        1.0  0.02515  0.13951  0.46143  1.0000
  C   C4        1.0  0.97482  0.86049  0.53857  1.0000
  C   C5        1.0  0.08371  0.14884  0.58276  1.0000
  C   C6        1.0  0.91626  0.85117  0.41724  1.0000
  C   C7        1.0  0.97539  0.28962  0.09663  1.0000
  C   C8        1.0  0.02462  0.71039  0.90337  1.0000
  C   C9        1.0  0.94240  0.99052  0.37704  1.0000
  C   C10       1.0  0.05757  0.00949  0.62296  1.0000
  C   C11       1.0  0.41596  0.73746  0.38318  1.0000
  C   C12       1.0  0.58405  0.26254  0.61682  1.0000
  C   C13       1.0  0.18803  0.57293  0.13546  1.0000
  C   C14       1.0  0.81198  0.42707  0.86453  1.0000
  C   C15       1.0  0.45316  0.75410  0.51849  1.0000
  C   C16       1.0  0.54684  0.24589  0.48150  1.0000
  C   C17       1.0  0.39082  0.82478  0.60362  1.0000
  C   C18       1.0  0.60918  0.17523  0.39638  1.0000
  C   C19       1.0  0.55848  0.69860  0.56506  1.0000
  C   C20       1.0  0.44152  0.30139  0.43494  1.0000
  C   C21       1.0  0.27712  0.77159  0.33582  1.0000
  C   C22       1.0  0.72289  0.22841  0.66419  1.0000
  C   C23       1.0  0.02587  0.45048  0.14179  1.0000
  C   C24       1.0  0.97414  0.54952  0.85821  1.0000
  C   C25       1.0  0.22984  0.35819  0.03059  1.0000
  C   C26       1.0  0.77017  0.64181  0.96942  1.0000
  C   C27       1.0  0.43667  0.83865  0.72759  1.0000
  C   C28       1.0  0.56333  0.16134  0.27241  1.0000
  C   C29       1.0  0.24882  0.74582  0.19581  1.0000
  C   C30       1.0  0.75118  0.25418  0.80419  1.0000
  C   C31       1.0  0.59969  0.71865  0.68986  1.0000
  C   C32       1.0  0.40030  0.28134  0.31014  1.0000
  C   C33       1.0  0.28923  0.52181  0.07591  1.0000
  C   C34       1.0  0.71078  0.47819  0.92409  1.0000
  Br  Br1       1.0  0.05468  0.32792  0.40924  1.0000
  Br  Br2       1.0  0.94532  0.67209  0.59075  1.0000
  Br  Br3       1.0  0.20558  0.35159  0.69567  1.0000
  Br  Br4       1.0  0.79439  0.64842  0.30433  1.0000
  N   N1        1.0  0.07583  0.23946  0.04318  1.0000
  N   N2        1.0  0.92418  0.76054  0.95682  1.0000
  N   N3        1.0  0.54055  0.78811  0.77124  1.0000
  N   N4        1.0  0.45945  0.21188  0.22876  1.0000
  O   O1        1.0  0.00384  0.00290  0.18017  1.0000
  O   O2        1.0  0.99616  0.99711  0.81983  1.0000
  O   O3        1.0  0.24455  0.04618  0.02209  1.0000
  O   O4        1.0  0.75545  0.95382  0.97790  1.0000
  O   O5        1.0  0.73442  0.93948  0.20710  1.0000
  O   O6        1.0  0.26556  0.06052  0.79288  1.0000
