data_image0
_chemical_formula_structural       Zn4H12C28N24O12
_chemical_formula_sum              "Zn4 H12 C28 N24 O12"
_cell_length_a       6.90027
_cell_length_b       8.52741
_cell_length_c       16.5748
_cell_angle_alpha    89.9998
_cell_angle_beta     90.0007
_cell_angle_gamma    113.857

_space_group_name_H-M_alt    "P 1"
_space_group_IT_number       1

loop_
  _space_group_symop_operation_xyz
  'x, y, z'

loop_
  _atom_site_type_symbol
  _atom_site_label
  _atom_site_symmetry_multiplicity
  _atom_site_fract_x
  _atom_site_fract_y
  _atom_site_fract_z
  _atom_site_occupancy
  Zn  Zn1       1.0  0.07215  0.14432  0.89831  1.0000
  Zn  Zn2       1.0  0.42785  0.85568  0.39831  1.0000
  Zn  Zn3       1.0  0.57215  0.14432  0.60169  1.0000
  Zn  Zn4       1.0  0.92785  0.85568  0.10169  1.0000
  H   H1        1.0  0.23731  0.47449  0.77292  1.0000
  H   H2        1.0  0.26269  0.52551  0.27292  1.0000
  H   H3        1.0  0.73731  0.47449  0.72708  1.0000
  H   H4        1.0  0.76269  0.52551  0.22708  1.0000
  H   H5        1.0  0.39579  0.79111  0.79149  1.0000
  H   H6        1.0  0.10421  0.20889  0.29149  1.0000
  H   H7        1.0  0.89578  0.79111  0.70851  1.0000
  H   H8        1.0  0.60421  0.20889  0.20851  1.0000
  H   H9        1.0  0.45300  0.90613  0.93561  1.0000
  H   H10       1.0  0.04700  0.09387  0.43561  1.0000
  H   H11       1.0  0.95299  0.90613  0.56439  1.0000
  H   H12       1.0  0.54700  0.09387  0.06439  1.0000
  C   C1        1.0  0.18541  0.37098  0.03744  1.0000
  C   C2        1.0  0.31459  0.62902  0.53744  1.0000
  C   C3        1.0  0.68541  0.37098  0.46256  1.0000
  C   C4        1.0  0.81459  0.62902  0.96255  1.0000
  C   C5        1.0  0.24756  0.49535  0.97114  1.0000
  C   C6        1.0  0.25243  0.50465  0.47114  1.0000
  C   C7        1.0  0.74756  0.49535  0.52886  1.0000
  C   C8        1.0  0.75244  0.50465  0.02886  1.0000
  C   C9        1.0  0.26538  0.53067  0.83326  1.0000
  C   C10       1.0  0.23463  0.46933  0.33326  1.0000
  C   C11       1.0  0.76537  0.53067  0.66674  1.0000
  C   C12       1.0  0.73462  0.46933  0.16674  1.0000
  C   C13       1.0  0.35399  0.70774  0.84411  1.0000
  C   C14       1.0  0.14601  0.29226  0.34411  1.0000
  C   C15       1.0  0.85399  0.70774  0.65589  1.0000
  C   C16       1.0  0.64601  0.29226  0.15589  1.0000
  C   C17       1.0  0.38427  0.76858  0.92321  1.0000
  C   C18       1.0  0.11573  0.23141  0.42321  1.0000
  C   C19       1.0  0.88426  0.76859  0.57679  1.0000
  C   C20       1.0  0.61573  0.23142  0.07679  1.0000
  C   C21       1.0  0.25026  0.13918  0.71734  1.0000
  C   C22       1.0  0.24973  0.86082  0.21734  1.0000
  C   C23       1.0  0.38881  0.13912  0.78264  1.0000
  C   C24       1.0  0.11120  0.86089  0.28264  1.0000
  C   C25       1.0  0.74973  0.86082  0.28266  1.0000
  C   C26       1.0  0.75027  0.13917  0.78267  1.0000
  C   C27       1.0  0.61120  0.86089  0.21736  1.0000
  C   C28       1.0  0.88880  0.13911  0.71735  1.0000
  N   N1        1.0  0.10125  0.20257  0.01987  1.0000
  N   N2        1.0  0.39874  0.79743  0.51987  1.0000
  N   N3        1.0  0.60126  0.20257  0.48013  1.0000
  N   N4        1.0  0.89875  0.79743  0.98013  1.0000
  N   N5        1.0  0.06135  0.12272  0.09090  1.0000
  N   N6        1.0  0.43864  0.87728  0.59090  1.0000
  N   N7        1.0  0.56136  0.12272  0.40910  1.0000
  N   N8        1.0  0.93865  0.87728  0.90910  1.0000
  N   N9        1.0  0.11878  0.23764  0.14980  1.0000
  N   N10       1.0  0.38121  0.76236  0.64980  1.0000
  N   N11       1.0  0.61879  0.23764  0.35020  1.0000
  N   N12       1.0  0.88122  0.76236  0.85020  1.0000
  N   N13       1.0  0.19766  0.39550  0.11790  1.0000
  N   N14       1.0  0.30233  0.60450  0.61790  1.0000
  N   N15       1.0  0.69767  0.39550  0.38210  1.0000
  N   N16       1.0  0.80233  0.60450  0.88210  1.0000
  N   N17       1.0  0.21170  0.42349  0.89653  1.0000
  N   N18       1.0  0.28830  0.57651  0.39653  1.0000
  N   N19       1.0  0.71169  0.42349  0.60347  1.0000
  N   N20       1.0  0.78830  0.57651  0.10346  1.0000
  N   N21       1.0  0.33122  0.66268  0.98721  1.0000
  N   N22       1.0  0.16878  0.33731  0.48721  1.0000
  N   N23       1.0  0.83122  0.66269  0.51279  1.0000
  N   N24       1.0  0.66878  0.33732  0.01279  1.0000
  O   O1        1.0  0.28108  0.13627  0.64247  1.0000
  O   O2        1.0  0.21891  0.86374  0.14247  1.0000
  O   O3        1.0  0.35506  0.13618  0.85751  1.0000
  O   O4        1.0  0.14495  0.86383  0.35752  1.0000
  O   O5        1.0  0.71892  0.86373  0.35754  1.0000
  O   O6        1.0  0.78108  0.13626  0.85753  1.0000
  O   O7        1.0  0.64495  0.86382  0.14248  1.0000
  O   O8        1.0  0.85505  0.13617  0.64249  1.0000
  O   O9        1.0  0.57029  0.14064  0.74870  1.0000
  O   O10       1.0  0.92971  0.85937  0.24870  1.0000
  O   O11       1.0  0.07029  0.14064  0.75130  1.0000
  O   O12       1.0  0.42971  0.85936  0.25130  1.0000
