data_image0
_chemical_formula_structural       Sr2H32C28N4O12
_chemical_formula_sum              "Sr2 H32 C28 N4 O12"
_cell_length_a       6.78139
_cell_length_b       7.45362
_cell_length_c       16.2652
_cell_angle_alpha    103.233
_cell_angle_beta     98.2909
_cell_angle_gamma    90.0264

_space_group_name_H-M_alt    "P 1"
_space_group_IT_number       1

loop_
  _space_group_symop_operation_xyz
  'x, y, z'

loop_
  _atom_site_type_symbol
  _atom_site_label
  _atom_site_symmetry_multiplicity
  _atom_site_fract_x
  _atom_site_fract_y
  _atom_site_fract_z
  _atom_site_occupancy
  Sr  Sr1       1.0  0.72897  0.42604  0.94151  1.0000
  Sr  Sr2       1.0  0.27059  0.48385  0.05855  1.0000
  H   H1        1.0  0.96722  0.57649  0.66218  1.0000
  H   H2        1.0  0.03206  0.91451  0.33784  1.0000
  H   H3        1.0  0.88713  0.60977  0.76171  1.0000
  H   H4        1.0  0.11183  0.84833  0.23828  1.0000
  H   H5        1.0  0.31987  0.32114  0.25756  1.0000
  H   H6        1.0  0.68012  0.06372  0.74211  1.0000
  H   H7        1.0  0.14243  0.27766  0.17019  1.0000
  H   H8        1.0  0.85686  0.10800  0.82973  1.0000
  H   H9        1.0  0.76282  0.65684  0.54377  1.0000
  H   H10       1.0  0.23712  0.11300  0.45623  1.0000
  H   H11       1.0  0.46927  0.74247  0.94871  1.0000
  H   H12       1.0  0.52949  0.79371  0.05111  1.0000
  H   H13       1.0  0.45068  0.78789  0.48803  1.0000
  H   H14       1.0  0.54973  0.29931  0.51186  1.0000
  H   H15       1.0  0.20037  0.90696  0.58513  1.0000
  H   H16       1.0  0.79975  0.32137  0.41460  1.0000
  H   H17       1.0  0.26278  0.87636  0.73558  1.0000
  H   H18       1.0  0.73675  0.14041  0.26414  1.0000
  H   H19       1.0  0.61537  0.99779  0.93129  1.0000
  H   H20       1.0  0.38442  0.06611  0.06856  1.0000
  H   H21       1.0  0.74694  0.08790  0.01996  1.0000
  H   H22       1.0  0.25447  0.06773  0.97963  1.0000
  H   H23       1.0  0.27219  0.49786  0.38986  1.0000
  H   H24       1.0  0.72869  0.10860  0.60992  1.0000
  H   H25       1.0  0.05154  0.68874  0.47926  1.0000
  H   H26       1.0  0.94989  0.21056  0.52086  1.0000
  H   H27       1.0  0.71539  0.77188  0.41340  1.0000
  H   H28       1.0  0.28632  0.35909  0.58705  1.0000
  H   H29       1.0  0.60464  0.64629  0.25793  1.0000
  H   H30       1.0  0.39619  0.38827  0.74255  1.0000
  H   H31       1.0  0.06513  0.82405  0.04632  1.0000
  H   H32       1.0  0.93568  0.77951  0.95440  1.0000
  C   C1        1.0  0.57511  0.74549  0.81728  1.0000
  C   C2        1.0  0.42428  0.92790  0.18263  1.0000
  C   C3        1.0  0.54733  0.75539  0.72631  1.0000
  C   C4        1.0  0.45220  0.02872  0.27359  1.0000
  C   C5        1.0  0.69543  0.69551  0.67240  1.0000
  C   C6        1.0  0.30416  0.02291  0.32757  1.0000
  C   C7        1.0  0.65250  0.70536  0.58568  1.0000
  C   C8        1.0  0.34743  0.11934  0.41428  1.0000
  C   C9        1.0  0.47705  0.77852  0.55468  1.0000
  C   C10       1.0  0.52306  0.22338  0.44523  1.0000
  C   C11       1.0  0.33506  0.84350  0.60832  1.0000
  C   C12       1.0  0.66493  0.23471  0.39151  1.0000
  C   C13       1.0  0.37109  0.82939  0.69272  1.0000
  C   C14       1.0  0.62859  0.13629  0.30710  1.0000
  C   C15       1.0  0.80340  0.45142  0.14175  1.0000
  C   C16       1.0  0.19625  0.30970  0.85845  1.0000
  C   C17       1.0  0.87669  0.51093  0.23506  1.0000
  C   C18       1.0  0.12353  0.27602  0.76508  1.0000
  C   C19       1.0  0.06969  0.46919  0.27179  1.0000
  C   C20       1.0  0.93051  0.19771  0.72815  1.0000
  C   C21       1.0  0.12658  0.53329  0.36073  1.0000
  C   C22       1.0  0.87420  0.17309  0.63922  1.0000
  C   C23       1.0  0.00113  0.64035  0.41093  1.0000
  C   C24       1.0  0.00005  0.23019  0.58921  1.0000
  C   C25       1.0  0.81291  0.68554  0.37458  1.0000
  C   C26       1.0  0.18834  0.31153  0.62574  1.0000
  C   C27       1.0  0.75184  0.61703  0.28763  1.0000
  C   C28       1.0  0.24895  0.32961  0.71270  1.0000
  N   N1        1.0  0.87643  0.64044  0.70335  1.0000
  N   N2        1.0  0.12297  0.93715  0.29669  1.0000
  N   N3        1.0  0.20454  0.37223  0.22334  1.0000
  N   N4        1.0  0.79531  0.14910  0.77642  1.0000
  O   O1        1.0  0.61788  0.44594  0.11487  1.0000
  O   O2        1.0  0.38174  0.33053  0.88556  1.0000
  O   O3        1.0  0.93087  0.40949  0.08961  1.0000
  O   O4        1.0  0.06831  0.32031  0.91042  1.0000
  O   O5        1.0  0.71985  0.65414  0.84571  1.0000
  O   O6        1.0  0.27936  0.80819  0.15420  1.0000
  O   O7        1.0  0.45366  0.83147  0.86541  1.0000
  O   O8        1.0  0.54571  0.96582  0.13448  1.0000
  O   O9        1.0  0.49930  0.68658  0.99992  1.0000
  O   O10       1.0  0.72894  0.08610  0.95931  1.0000
  O   O11       1.0  0.27080  0.12592  0.04033  1.0000
  O   O12       1.0  0.99937  0.72437  0.00027  1.0000
