data_image0
_chemical_formula_structural       CdH14C10N4O4
_chemical_formula_sum              "Cd1 H14 C10 N4 O4"
_cell_length_a       5.11355
_cell_length_b       7.71002
_cell_length_c       8.77158
_cell_angle_alpha    75.4258
_cell_angle_beta     89.8835
_cell_angle_gamma    75.6384

_space_group_name_H-M_alt    "P 1"
_space_group_IT_number       1

loop_
  _space_group_symop_operation_xyz
  'x, y, z'

loop_
  _atom_site_type_symbol
  _atom_site_label
  _atom_site_symmetry_multiplicity
  _atom_site_fract_x
  _atom_site_fract_y
  _atom_site_fract_z
  _atom_site_occupancy
  Cd  Cd1       1.0  1.00000  0.00000  1.00000  1.0000
  H   H1        1.0  0.64258  0.71807  0.97689  1.0000
  H   H2        1.0  0.35742  0.28194  0.02311  1.0000
  H   H3        1.0  0.70029  0.46406  0.81957  1.0000
  H   H4        1.0  0.29971  0.53594  0.18043  1.0000
  H   H5        1.0  0.10133  0.52719  0.61657  1.0000
  H   H6        1.0  0.89867  0.47281  0.38343  1.0000
  H   H7        1.0  0.24655  0.82170  0.68947  1.0000
  H   H8        1.0  0.75345  0.17830  0.31052  1.0000
  H   H9        1.0  0.77083  0.22481  0.63065  1.0000
  H   H10       1.0  0.22917  0.77519  0.36935  1.0000
  H   H11       1.0  0.44020  0.30095  0.52866  1.0000
  H   H12       1.0  0.55980  0.69905  0.47134  1.0000
  H   H13       1.0  0.60759  0.06299  0.58506  1.0000
  H   H14       1.0  0.39241  0.93700  0.41494  1.0000
  C   C1        1.0  0.81526  0.56797  0.80295  1.0000
  C   C2        1.0  0.18474  0.43204  0.19705  1.0000
  C   C3        1.0  0.01937  0.60134  0.70271  1.0000
  C   C4        1.0  0.98063  0.39866  0.29729  1.0000
  C   C5        1.0  0.09720  0.74921  0.73925  1.0000
  C   C6        1.0  0.90279  0.25080  0.26075  1.0000
  C   C7        1.0  0.43956  0.17293  0.77571  1.0000
  C   C8        1.0  0.56044  0.82707  0.22429  1.0000
  C   C9        1.0  0.57561  0.19275  0.62108  1.0000
  C   C10       1.0  0.42439  0.80724  0.37892  1.0000
  N   N1        1.0  0.95013  0.80227  0.85438  1.0000
  N   N2        1.0  0.04987  0.19773  0.14562  1.0000
  N   N3        1.0  0.78001  0.69142  0.89101  1.0000
  N   N4        1.0  0.21999  0.30858  0.10899  1.0000
  O   O1        1.0  0.55606  0.20381  0.89257  1.0000
  O   O2        1.0  0.44394  0.79619  0.10744  1.0000
  O   O3        1.0  0.21621  0.12921  0.78043  1.0000
  O   O4        1.0  0.78379  0.87079  0.21957  1.0000
