data_image0
_chemical_formula_structural       Sm4H32C24O28
_chemical_formula_sum              "Sm4 H32 C24 O28"
_cell_length_a       7.78997
_cell_length_b       10.8049
_cell_length_c       12.77
_cell_angle_alpha    71.7793
_cell_angle_beta     72.2293
_cell_angle_gamma    68.8561

_space_group_name_H-M_alt    "P 1"
_space_group_IT_number       1

loop_
  _space_group_symop_operation_xyz
  'x, y, z'

loop_
  _atom_site_type_symbol
  _atom_site_label
  _atom_site_symmetry_multiplicity
  _atom_site_fract_x
  _atom_site_fract_y
  _atom_site_fract_z
  _atom_site_occupancy
  Sm  Sm1       1.0  0.01571  0.30979  0.22918  1.0000
  Sm  Sm2       1.0  0.55471  0.19015  0.27085  1.0000
  Sm  Sm3       1.0  0.98429  0.69021  0.77082  1.0000
  Sm  Sm4       1.0  0.44529  0.80985  0.72915  1.0000
  H   H1        1.0  0.82256  0.58231  0.08821  1.0000
  H   H2        1.0  0.49318  0.91767  0.41174  1.0000
  H   H3        1.0  0.17744  0.41769  0.91179  1.0000
  H   H4        1.0  0.50682  0.08233  0.58826  1.0000
  H   H5        1.0  0.66260  0.50112  0.14542  1.0000
  H   H6        1.0  0.30928  0.99889  0.35447  1.0000
  H   H7        1.0  0.33740  0.49888  0.85458  1.0000
  H   H8        1.0  0.69072  0.00110  0.64553  1.0000
  H   H9        1.0  0.09299  0.83151  0.48602  1.0000
  H   H10       1.0  0.41059  0.66839  0.01394  1.0000
  H   H11       1.0  0.90701  0.16849  0.51398  1.0000
  H   H12       1.0  0.58941  0.33161  0.98606  1.0000
  H   H13       1.0  0.18885  0.79503  0.35185  1.0000
  H   H14       1.0  0.33560  0.70487  0.14812  1.0000
  H   H15       1.0  0.81115  0.20497  0.64815  1.0000
  H   H16       1.0  0.66440  0.29513  0.85188  1.0000
  H   H17       1.0  0.87233  0.75920  0.36085  1.0000
  H   H18       1.0  0.99226  0.74103  0.13900  1.0000
  H   H19       1.0  0.12768  0.24079  0.63915  1.0000
  H   H20       1.0  0.00774  0.25897  0.86100  1.0000
  H   H21       1.0  0.01023  0.63676  0.45797  1.0000
  H   H22       1.0  0.10511  0.86334  0.04191  1.0000
  H   H23       1.0  0.98978  0.36324  0.54202  1.0000
  H   H24       1.0  0.89489  0.13666  0.95809  1.0000
  H   H25       1.0  0.34153  0.13380  0.97247  1.0000
  H   H26       1.0  0.44745  0.36638  0.52755  1.0000
  H   H27       1.0  0.65847  0.86620  0.02753  1.0000
  H   H28       1.0  0.55255  0.63362  0.47245  1.0000
  H   H29       1.0  0.31085  0.99689  0.08536  1.0000
  H   H30       1.0  0.39278  0.50339  0.41472  1.0000
  H   H31       1.0  0.68915  0.00311  0.91464  1.0000
  H   H32       1.0  0.60722  0.49661  0.58528  1.0000
  C   C1        1.0  0.96925  0.98274  0.35513  1.0000
  C   C2        1.0  0.30688  0.51729  0.14485  1.0000
  C   C3        1.0  0.03075  0.01726  0.64487  1.0000
  C   C4        1.0  0.69312  0.48271  0.85515  1.0000
  C   C5        1.0  0.05476  0.83406  0.40913  1.0000
  C   C6        1.0  0.29788  0.66592  0.09079  1.0000
  C   C7        1.0  0.94524  0.16594  0.59087  1.0000
  C   C8        1.0  0.70211  0.33408  0.90921  1.0000
  C   C9        1.0  0.92671  0.74384  0.43506  1.0000
  C   C10       1.0  0.10562  0.75631  0.06482  1.0000
  C   C11       1.0  0.07329  0.25616  0.56494  1.0000
  C   C12       1.0  0.89438  0.24369  0.93518  1.0000
  C   C13       1.0  0.76200  0.76833  0.53398  1.0000
  C   C14       1.0  0.06439  0.73186  0.96589  1.0000
  C   C15       1.0  0.23800  0.23167  0.46601  1.0000
  C   C16       1.0  0.93561  0.26814  0.03411  1.0000
  C   C17       1.0  0.47305  0.10496  0.10467  1.0000
  C   C18       1.0  0.68244  0.39503  0.39530  1.0000
  C   C19       1.0  0.52694  0.89504  0.89533  1.0000
  C   C20       1.0  0.31756  0.60497  0.60470  1.0000
  C   C21       1.0  0.41717  0.04815  0.03099  1.0000
  C   C22       1.0  0.49609  0.45196  0.46902  1.0000
  C   C23       1.0  0.58283  0.95185  0.96901  1.0000
  C   C24       1.0  0.50391  0.54804  0.53099  1.0000
  O   O1        1.0  0.77645  0.51452  0.15373  1.0000
  O   O2        1.0  0.44488  0.98543  0.34619  1.0000
  O   O3        1.0  0.22355  0.48548  0.84627  1.0000
  O   O4        1.0  0.55512  0.01457  0.65381  1.0000
  O   O5        1.0  0.07003  0.06374  0.32801  1.0000
  O   O6        1.0  0.46163  0.43624  0.17188  1.0000
  O   O7        1.0  0.92997  0.93626  0.67200  1.0000
  O   O8        1.0  0.53837  0.56376  0.82812  1.0000
  O   O9        1.0  0.80358  0.01718  0.34061  1.0000
  O   O10       1.0  0.16100  0.48294  0.15956  1.0000
  O   O11       1.0  0.19642  0.98282  0.65939  1.0000
  O   O12       1.0  0.83900  0.51706  0.84045  1.0000
  O   O13       1.0  0.59244  0.81586  0.52205  1.0000
  O   O14       1.0  0.93054  0.68424  0.97785  1.0000
  O   O15       1.0  0.40757  0.18414  0.47795  1.0000
  O   O16       1.0  0.06946  0.31576  0.02216  1.0000
  O   O17       1.0  0.79169  0.73736  0.63408  1.0000
  O   O18       1.0  0.16315  0.76291  0.86577  1.0000
  O   O19       1.0  0.20831  0.26264  0.36592  1.0000
  O   O20       1.0  0.83685  0.23709  0.13423  1.0000
  O   O21       1.0  0.34471  0.19429  0.15735  1.0000
  O   O22       1.0  0.69605  0.30581  0.34257  1.0000
  O   O23       1.0  0.65529  0.80572  0.84265  1.0000
  O   O24       1.0  0.30395  0.69419  0.65743  1.0000
  O   O25       1.0  0.64069  0.06794  0.11611  1.0000
  O   O26       1.0  0.82464  0.43183  0.38394  1.0000
  O   O27       1.0  0.35930  0.93207  0.88389  1.0000
  O   O28       1.0  0.17535  0.56817  0.61606  1.0000
