data_image0
_chemical_formula_structural       Cd2H30C30N14O14
_chemical_formula_sum              "Cd2 H30 C30 N14 O14"
_cell_length_a       8.89664
_cell_length_b       10.2933
_cell_length_c       10.4695
_cell_angle_alpha    77.6866
_cell_angle_beta     87.1822
_cell_angle_gamma    87.9978

_space_group_name_H-M_alt    "P 1"
_space_group_IT_number       1

loop_
  _space_group_symop_operation_xyz
  'x, y, z'

loop_
  _atom_site_type_symbol
  _atom_site_label
  _atom_site_symmetry_multiplicity
  _atom_site_fract_x
  _atom_site_fract_y
  _atom_site_fract_z
  _atom_site_occupancy
  Cd  Cd1       1.0  0.11843  0.66931  0.17678  1.0000
  Cd  Cd2       1.0  0.88157  0.33069  0.82322  1.0000
  H   H1        1.0  0.00473  0.64182  0.47474  1.0000
  H   H2        1.0  0.99527  0.35818  0.52526  1.0000
  H   H3        1.0  0.83510  0.76064  0.61308  1.0000
  H   H4        1.0  0.16489  0.23936  0.38692  1.0000
  H   H5        1.0  0.84477  0.10381  0.29455  1.0000
  H   H6        1.0  0.15523  0.89620  0.70545  1.0000
  H   H7        1.0  0.00228  0.96873  0.16419  1.0000
  H   H8        1.0  0.99772  0.03127  0.83581  1.0000
  H   H9        1.0  0.58062  0.31158  0.53153  1.0000
  H   H10       1.0  0.41938  0.68842  0.46847  1.0000
  H   H11       1.0  0.35013  0.10918  0.87203  1.0000
  H   H12       1.0  0.64987  0.89081  0.12797  1.0000
  H   H13       1.0  0.20721  0.97636  0.06191  1.0000
  H   H14       1.0  0.79279  0.02364  0.93809  1.0000
  H   H15       1.0  0.40909  0.62314  0.00127  1.0000
  H   H16       1.0  0.59091  0.37686  0.99873  1.0000
  H   H17       1.0  0.56189  0.74325  0.80735  1.0000
  H   H18       1.0  0.43811  0.25675  0.19265  1.0000
  H   H19       1.0  0.79094  0.53360  0.37514  1.0000
  H   H20       1.0  0.20906  0.46640  0.62486  1.0000
  H   H21       1.0  0.75691  0.39516  0.30638  1.0000
  H   H22       1.0  0.24309  0.60484  0.69362  1.0000
  H   H23       1.0  0.74587  0.68862  0.15902  1.0000
  H   H24       1.0  0.25413  0.31138  0.84099  1.0000
  H   H25       1.0  0.58731  0.58847  0.21340  1.0000
  H   H26       1.0  0.41269  0.41154  0.78660  1.0000
  H   H27       1.0  0.71271  0.55081  0.08749  1.0000
  H   H28       1.0  0.28729  0.44919  0.91251  1.0000
  H   H29       1.0  0.96699  0.43776  0.17607  1.0000
  H   H30       1.0  0.03302  0.56225  0.82393  1.0000
  C   C1        1.0  0.96393  0.74317  0.43732  1.0000
  C   C2        1.0  0.03607  0.25683  0.56268  1.0000
  C   C3        1.0  0.87026  0.80922  0.51402  1.0000
  C   C4        1.0  0.12974  0.19078  0.48598  1.0000
  C   C5        1.0  0.82329  0.94036  0.46186  1.0000
  C   C6        1.0  0.17671  0.05964  0.53813  1.0000
  C   C7        1.0  0.87612  0.00096  0.33612  1.0000
  C   C8        1.0  0.12387  0.99904  0.66387  1.0000
  C   C9        1.0  0.96572  0.92647  0.26462  1.0000
  C   C10       1.0  0.03428  0.07353  0.73538  1.0000
  C   C11       1.0  0.71753  0.01348  0.53658  1.0000
  C   C12       1.0  0.28247  0.98652  0.46342  1.0000
  C   C13       1.0  0.55005  0.01157  0.70727  1.0000
  C   C14       1.0  0.44995  0.98843  0.29274  1.0000
  C   C15       1.0  0.60003  0.20478  0.56394  1.0000
  C   C16       1.0  0.39997  0.79522  0.43606  1.0000
  C   C17       1.0  0.46657  0.93638  0.82408  1.0000
  C   C18       1.0  0.53344  0.06362  0.17592  1.0000
  C   C19       1.0  0.36620  0.00170  0.89787  1.0000
  C   C20       1.0  0.63381  0.99830  0.10213  1.0000
  C   C21       1.0  0.28643  0.92704  0.00413  1.0000
  C   C22       1.0  0.71357  0.07295  0.99588  1.0000
  C   C23       1.0  0.39992  0.73088  0.96925  1.0000
  C   C24       1.0  0.60008  0.26912  0.03075  1.0000
  C   C25       1.0  0.48500  0.79799  0.86200  1.0000
  C   C26       1.0  0.51500  0.20201  0.13800  1.0000
  C   C27       1.0  0.79774  0.49759  0.28353  1.0000
  C   C28       1.0  0.20226  0.50241  0.71648  1.0000
  C   C29       1.0  0.70588  0.58628  0.17952  1.0000
  C   C30       1.0  0.29412  0.41372  0.82048  1.0000
  N   N1        1.0  0.32573  0.47370  0.30502  1.0000
  N   N2        1.0  0.67427  0.52630  0.69498  1.0000
  N   N3        1.0  0.95481  0.75307  0.92974  1.0000
  N   N4        1.0  0.04519  0.24693  0.07026  1.0000
  N   N5        1.0  0.00800  0.79938  0.31326  1.0000
  N   N6        1.0  0.99200  0.20062  0.68673  1.0000
  N   N7        1.0  0.64549  0.94212  0.64249  1.0000
  N   N8        1.0  0.35451  0.05788  0.35751  1.0000
  N   N9        1.0  0.52367  0.14374  0.67250  1.0000
  N   N10       1.0  0.47633  0.85626  0.32750  1.0000
  N   N11       1.0  0.69806  0.14547  0.49192  1.0000
  N   N12       1.0  0.30194  0.85453  0.50808  1.0000
  N   N13       1.0  0.30103  0.79358  0.03892  1.0000
  N   N14       1.0  0.69897  0.20642  0.96108  1.0000
  O   O1        1.0  0.29830  0.48552  0.18320  1.0000
  O   O2        1.0  0.70170  0.51448  0.81679  1.0000
  O   O3        1.0  0.25452  0.55259  0.36806  1.0000
  O   O4        1.0  0.74548  0.44741  0.63194  1.0000
  O   O5        1.0  0.41829  0.38911  0.35870  1.0000
  O   O6        1.0  0.58171  0.61089  0.64130  1.0000
  O   O7        1.0  0.03763  0.64573  0.94859  1.0000
  O   O8        1.0  0.96237  0.35427  0.05141  1.0000
  O   O9        1.0  0.94869  0.81996  0.01993  1.0000
  O   O10       1.0  0.05131  0.18004  0.98006  1.0000
  O   O11       1.0  0.88454  0.78999  0.82847  1.0000
  O   O12       1.0  0.11546  0.21002  0.17153  1.0000
  O   O13       1.0  0.95652  0.49172  0.24494  1.0000
  O   O14       1.0  0.04348  0.50829  0.75505  1.0000
