data_image0
_chemical_formula_structural       Cu2H12C6N8Cl4
_chemical_formula_sum              "Cu2 H12 C6 N8 Cl4"
_cell_length_a       6.83928
_cell_length_b       7.38818
_cell_length_c       8.58632
_cell_angle_alpha    109.771
_cell_angle_beta     105.272
_cell_angle_gamma    103.151

_space_group_name_H-M_alt    "P 1"
_space_group_IT_number       1

loop_
  _space_group_symop_operation_xyz
  'x, y, z'

loop_
  _atom_site_type_symbol
  _atom_site_label
  _atom_site_symmetry_multiplicity
  _atom_site_fract_x
  _atom_site_fract_y
  _atom_site_fract_z
  _atom_site_occupancy
  Cu  Cu1       1.0  0.99999  1.00000  0.00000  1.0000
  Cu  Cu2       1.0  0.49999  0.00000  1.00000  1.0000
  H   H1        1.0  0.96846  0.77547  0.42613  1.0000
  H   H2        1.0  0.03153  0.22453  0.57388  1.0000
  H   H3        1.0  0.84876  0.55845  0.21731  1.0000
  H   H4        1.0  0.15125  0.44154  0.78269  1.0000
  H   H5        1.0  0.81693  0.79516  0.23065  1.0000
  H   H6        1.0  0.18307  0.20483  0.76936  1.0000
  H   H7        1.0  0.53708  0.70355  0.49671  1.0000
  H   H8        1.0  0.46292  0.29645  0.50329  1.0000
  H   H9        1.0  0.27171  0.50923  0.38712  1.0000
  H   H10       1.0  0.72829  0.49076  0.61287  1.0000
  H   H11       1.0  0.31813  0.75006  0.56263  1.0000
  H   H12       1.0  0.68188  0.24995  0.43737  1.0000
  C   C1        1.0  0.12690  0.78464  0.24630  1.0000
  C   C2        1.0  0.87311  0.21537  0.75370  1.0000
  C   C3        1.0  0.92892  0.72635  0.28209  1.0000
  C   C4        1.0  0.07109  0.27365  0.71792  1.0000
  C   C5        1.0  0.36331  0.67467  0.45081  1.0000
  C   C6        1.0  0.63670  0.32533  0.54919  1.0000
  N   N1        1.0  0.31348  0.75880  0.32056  1.0000
  N   N2        1.0  0.68652  0.24121  0.67944  1.0000
  N   N3        1.0  0.46100  0.82364  0.25630  1.0000
  N   N4        1.0  0.53900  0.17637  0.74369  1.0000
  N   N5        1.0  0.36654  0.88813  0.14527  1.0000
  N   N6        1.0  0.63345  0.11187  0.85472  1.0000
  N   N7        1.0  0.16250  0.86900  0.13612  1.0000
  N   N8        1.0  0.83749  0.13100  0.86388  1.0000
  Cl  Cl1       1.0  0.57986  0.71147  0.88417  1.0000
  Cl  Cl2       1.0  0.42013  0.28854  0.11582  1.0000
  Cl  Cl3       1.0  0.94242  0.18666  0.24819  1.0000
  Cl  Cl4       1.0  0.05758  0.81334  0.75181  1.0000
