data_image0
_chemical_formula_structural       Pr4H32C24O28
_chemical_formula_sum              "Pr4 H32 C24 O28"
_cell_length_a       7.91962
_cell_length_b       10.8307
_cell_length_c       12.9646
_cell_angle_alpha    71.4472
_cell_angle_beta     72.2159
_cell_angle_gamma    68.5584

_space_group_name_H-M_alt    "P 1"
_space_group_IT_number       1

loop_
  _space_group_symop_operation_xyz
  'x, y, z'

loop_
  _atom_site_type_symbol
  _atom_site_label
  _atom_site_symmetry_multiplicity
  _atom_site_fract_x
  _atom_site_fract_y
  _atom_site_fract_z
  _atom_site_occupancy
  Pr  Pr1       1.0  0.01660  0.31010  0.22924  1.0000
  Pr  Pr2       1.0  0.55590  0.18987  0.27076  1.0000
  Pr  Pr3       1.0  0.98340  0.68990  0.77076  1.0000
  Pr  Pr4       1.0  0.44411  0.81013  0.72924  1.0000
  H   H1        1.0  0.82045  0.58643  0.08696  1.0000
  H   H2        1.0  0.49376  0.91360  0.41299  1.0000
  H   H3        1.0  0.17955  0.41357  0.91304  1.0000
  H   H4        1.0  0.50624  0.08640  0.58701  1.0000
  H   H5        1.0  0.66272  0.50618  0.14274  1.0000
  H   H6        1.0  0.31150  0.99384  0.35727  1.0000
  H   H7        1.0  0.33728  0.49382  0.85726  1.0000
  H   H8        1.0  0.68850  0.00617  0.64273  1.0000
  H   H9        1.0  0.09107  0.82555  0.48832  1.0000
  H   H10       1.0  0.40503  0.67442  0.01166  1.0000
  H   H11       1.0  0.90893  0.17445  0.51168  1.0000
  H   H12       1.0  0.59497  0.32558  0.98834  1.0000
  H   H13       1.0  0.18603  0.78938  0.35624  1.0000
  H   H14       1.0  0.33182  0.71054  0.14375  1.0000
  H   H15       1.0  0.81397  0.21061  0.64376  1.0000
  H   H16       1.0  0.66818  0.28946  0.85625  1.0000
  H   H17       1.0  0.87347  0.75679  0.36346  1.0000
  H   H18       1.0  0.99386  0.74312  0.13653  1.0000
  H   H19       1.0  0.12653  0.24321  0.63654  1.0000
  H   H20       1.0  0.00614  0.25688  0.86347  1.0000
  H   H21       1.0  0.00740  0.63316  0.46022  1.0000
  H   H22       1.0  0.10093  0.86678  0.03983  1.0000
  H   H23       1.0  0.99260  0.36684  0.53978  1.0000
  H   H24       1.0  0.89907  0.13322  0.96017  1.0000
  H   H25       1.0  0.31440  0.99520  0.08405  1.0000
  H   H26       1.0  0.39360  0.50491  0.41592  1.0000
  H   H27       1.0  0.68560  0.00480  0.91595  1.0000
  H   H28       1.0  0.60640  0.49509  0.58408  1.0000
  H   H29       1.0  0.34271  0.13427  0.97420  1.0000
  H   H30       1.0  0.45120  0.36574  0.52570  1.0000
  H   H31       1.0  0.65729  0.86573  0.02580  1.0000
  H   H32       1.0  0.54880  0.63426  0.47430  1.0000
  C   C1        1.0  0.97180  0.97865  0.35835  1.0000
  C   C2        1.0  0.30888  0.52128  0.14162  1.0000
  C   C3        1.0  0.02820  0.02135  0.64165  1.0000
  C   C4        1.0  0.69111  0.47872  0.85838  1.0000
  C   C5        1.0  0.05378  0.82929  0.41212  1.0000
  C   C6        1.0  0.29533  0.67064  0.08788  1.0000
  C   C7        1.0  0.94622  0.17071  0.58788  1.0000
  C   C8        1.0  0.70467  0.32936  0.91212  1.0000
  C   C9        1.0  0.92629  0.74079  0.43707  1.0000
  C   C10       1.0  0.10430  0.75916  0.06295  1.0000
  C   C11       1.0  0.07371  0.25921  0.56293  1.0000
  C   C12       1.0  0.89570  0.24084  0.93705  1.0000
  C   C13       1.0  0.76320  0.76634  0.53382  1.0000
  C   C14       1.0  0.06354  0.73371  0.96613  1.0000
  C   C15       1.0  0.23680  0.23366  0.46617  1.0000
  C   C16       1.0  0.93646  0.26629  0.03387  1.0000
  C   C17       1.0  0.47335  0.10204  0.10494  1.0000
  C   C18       1.0  0.68027  0.39803  0.39501  1.0000
  C   C19       1.0  0.52665  0.89796  0.89506  1.0000
  C   C20       1.0  0.31973  0.60197  0.60499  1.0000
  C   C21       1.0  0.41833  0.04736  0.03120  1.0000
  C   C22       1.0  0.49683  0.45271  0.46876  1.0000
  C   C23       1.0  0.58168  0.95264  0.96880  1.0000
  C   C24       1.0  0.50317  0.54729  0.53125  1.0000
  O   O1        1.0  0.77447  0.51898  0.15165  1.0000
  O   O2        1.0  0.44498  0.98102  0.34830  1.0000
  O   O3        1.0  0.22553  0.48102  0.84835  1.0000
  O   O4        1.0  0.55502  0.01898  0.65170  1.0000
  O   O5        1.0  0.07206  0.05831  0.33267  1.0000
  O   O6        1.0  0.46308  0.44166  0.16734  1.0000
  O   O7        1.0  0.92794  0.94169  0.66733  1.0000
  O   O8        1.0  0.53692  0.55834  0.83266  1.0000
  O   O9        1.0  0.80910  0.01537  0.34235  1.0000
  O   O10       1.0  0.16692  0.48456  0.15758  1.0000
  O   O11       1.0  0.19090  0.98463  0.65765  1.0000
  O   O12       1.0  0.83308  0.51544  0.84242  1.0000
  O   O13       1.0  0.59652  0.81368  0.52123  1.0000
  O   O14       1.0  0.93154  0.68644  0.97866  1.0000
  O   O15       1.0  0.40348  0.18632  0.47877  1.0000
  O   O16       1.0  0.06846  0.31356  0.02134  1.0000
  O   O17       1.0  0.79266  0.73585  0.63253  1.0000
  O   O18       1.0  0.16123  0.76425  0.86744  1.0000
  O   O19       1.0  0.20734  0.26415  0.36747  1.0000
  O   O20       1.0  0.83877  0.23575  0.13256  1.0000
  O   O21       1.0  0.34577  0.19037  0.15728  1.0000
  O   O22       1.0  0.69331  0.30972  0.34266  1.0000
  O   O23       1.0  0.65423  0.80963  0.84272  1.0000
  O   O24       1.0  0.30669  0.69028  0.65734  1.0000
  O   O25       1.0  0.63877  0.06478  0.11589  1.0000
  O   O26       1.0  0.81945  0.43521  0.38408  1.0000
  O   O27       1.0  0.36123  0.93522  0.88411  1.0000
  O   O28       1.0  0.18055  0.56479  0.61591  1.0000
