data_image0
_chemical_formula_structural       Gd4H32C24O28
_chemical_formula_sum              "Gd4 H32 C24 O28"
_cell_length_a       7.71138
_cell_length_b       10.7525
_cell_length_c       12.6866
_cell_angle_alpha    71.868
_cell_angle_beta     72.3144
_cell_angle_gamma    68.9871

_space_group_name_H-M_alt    "P 1"
_space_group_IT_number       1

loop_
  _space_group_symop_operation_xyz
  'x, y, z'

loop_
  _atom_site_type_symbol
  _atom_site_label
  _atom_site_symmetry_multiplicity
  _atom_site_fract_x
  _atom_site_fract_y
  _atom_site_fract_z
  _atom_site_occupancy
  Gd  Gd1       1.0  0.01588  0.30984  0.22916  1.0000
  Gd  Gd2       1.0  0.55494  0.19012  0.27084  1.0000
  Gd  Gd3       1.0  0.98412  0.69016  0.77084  1.0000
  Gd  Gd4       1.0  0.44506  0.80988  0.72916  1.0000
  H   H1        1.0  0.82582  0.58021  0.08780  1.0000
  H   H2        1.0  0.49383  0.91977  0.41214  1.0000
  H   H3        1.0  0.17419  0.41979  0.91220  1.0000
  H   H4        1.0  0.50617  0.08023  0.58786  1.0000
  H   H5        1.0  0.66443  0.49842  0.14577  1.0000
  H   H6        1.0  0.30866  0.00158  0.35411  1.0000
  H   H7        1.0  0.33558  0.50158  0.85423  1.0000
  H   H8        1.0  0.69134  0.99842  0.64589  1.0000
  H   H9        1.0  0.09510  0.83296  0.48559  1.0000
  H   H10       1.0  0.41363  0.66699  0.01446  1.0000
  H   H11       1.0  0.90490  0.16704  0.51441  1.0000
  H   H12       1.0  0.58637  0.33301  0.98554  1.0000
  H   H13       1.0  0.19036  0.79688  0.35034  1.0000
  H   H14       1.0  0.33772  0.70300  0.14971  1.0000
  H   H15       1.0  0.80964  0.20312  0.64966  1.0000
  H   H16       1.0  0.66228  0.29700  0.85029  1.0000
  H   H17       1.0  0.87097  0.75893  0.36095  1.0000
  H   H18       1.0  0.99096  0.74103  0.13911  1.0000
  H   H19       1.0  0.12904  0.24107  0.63905  1.0000
  H   H20       1.0  0.00904  0.25896  0.86089  1.0000
  H   H21       1.0  0.01188  0.63662  0.45782  1.0000
  H   H22       1.0  0.10645  0.86329  0.04219  1.0000
  H   H23       1.0  0.98812  0.36338  0.54218  1.0000
  H   H24       1.0  0.89356  0.13671  0.95781  1.0000
  H   H25       1.0  0.34369  0.13561  0.97014  1.0000
  H   H26       1.0  0.44936  0.36445  0.52968  1.0000
  H   H27       1.0  0.65631  0.86439  0.02986  1.0000
  H   H28       1.0  0.55064  0.63555  0.47032  1.0000
  H   H29       1.0  0.30648  0.99988  0.08389  1.0000
  H   H30       1.0  0.39018  0.50035  0.41604  1.0000
  H   H31       1.0  0.69352  0.00012  0.91611  1.0000
  H   H32       1.0  0.60982  0.49965  0.58396  1.0000
  C   C1        1.0  0.96763  0.98451  0.35466  1.0000
  C   C2        1.0  0.30685  0.51542  0.14534  1.0000
  C   C3        1.0  0.03237  0.01549  0.64534  1.0000
  C   C4        1.0  0.69315  0.48458  0.85466  1.0000
  C   C5        1.0  0.05548  0.83545  0.40852  1.0000
  C   C6        1.0  0.29947  0.66447  0.09154  1.0000
  C   C7        1.0  0.94452  0.16455  0.59148  1.0000
  C   C8        1.0  0.70053  0.33553  0.90847  1.0000
  C   C9        1.0  0.92699  0.74390  0.43519  1.0000
  C   C10       1.0  0.10614  0.75604  0.06485  1.0000
  C   C11       1.0  0.07301  0.25610  0.56481  1.0000
  C   C12       1.0  0.89386  0.24395  0.93515  1.0000
  C   C13       1.0  0.76150  0.76783  0.53509  1.0000
  C   C14       1.0  0.06443  0.73211  0.96497  1.0000
  C   C15       1.0  0.23849  0.23216  0.46491  1.0000
  C   C16       1.0  0.93557  0.26789  0.03503  1.0000
  C   C17       1.0  0.47275  0.10561  0.10525  1.0000
  C   C18       1.0  0.68355  0.39447  0.39468  1.0000
  C   C19       1.0  0.52725  0.89439  0.89475  1.0000
  C   C20       1.0  0.31645  0.60553  0.60532  1.0000
  C   C21       1.0  0.41664  0.04933  0.03030  1.0000
  C   C22       1.0  0.49622  0.45076  0.46963  1.0000
  C   C23       1.0  0.58336  0.95067  0.96970  1.0000
  C   C24       1.0  0.50378  0.54925  0.53037  1.0000
  O   O1        1.0  0.77942  0.51222  0.15391  1.0000
  O   O2        1.0  0.44561  0.98776  0.34602  1.0000
  O   O3        1.0  0.22058  0.48778  0.84609  1.0000
  O   O4        1.0  0.55439  0.01224  0.65398  1.0000
  O   O5        1.0  0.06850  0.06660  0.32737  1.0000
  O   O6        1.0  0.46263  0.43329  0.17249  1.0000
  O   O7        1.0  0.93150  0.93340  0.67263  1.0000
  O   O8        1.0  0.53737  0.56671  0.82751  1.0000
  O   O9        1.0  0.80038  0.01800  0.34049  1.0000
  O   O10       1.0  0.15886  0.48195  0.15960  1.0000
  O   O11       1.0  0.19963  0.98200  0.65951  1.0000
  O   O12       1.0  0.84114  0.51805  0.84040  1.0000
  O   O13       1.0  0.59017  0.81600  0.52336  1.0000
  O   O14       1.0  0.92961  0.68392  0.97662  1.0000
  O   O15       1.0  0.40983  0.18401  0.47664  1.0000
  O   O16       1.0  0.07039  0.31608  0.02338  1.0000
  O   O17       1.0  0.79116  0.73579  0.63591  1.0000
  O   O18       1.0  0.16291  0.76420  0.86415  1.0000
  O   O19       1.0  0.20883  0.26422  0.36408  1.0000
  O   O20       1.0  0.83709  0.23580  0.13585  1.0000
  O   O21       1.0  0.34379  0.19513  0.15847  1.0000
  O   O22       1.0  0.69734  0.30487  0.34154  1.0000
  O   O23       1.0  0.65621  0.80487  0.84153  1.0000
  O   O24       1.0  0.30266  0.69514  0.65846  1.0000
  O   O25       1.0  0.64167  0.06806  0.11741  1.0000
  O   O26       1.0  0.82710  0.43201  0.38250  1.0000
  O   O27       1.0  0.35833  0.93194  0.88259  1.0000
  O   O28       1.0  0.17290  0.56799  0.61750  1.0000
