data_image0
_chemical_formula_structural       Ag2H26C20S4O4
_chemical_formula_sum              "Ag2 H26 C20 S4 O4"
_cell_length_a       6.76983
_cell_length_b       7.55936
_cell_length_c       12.2418
_cell_angle_alpha    78.52
_cell_angle_beta     87.5648
_cell_angle_gamma    74.5897

_space_group_name_H-M_alt    "P 1"
_space_group_IT_number       1

loop_
  _space_group_symop_operation_xyz
  'x, y, z'

loop_
  _atom_site_type_symbol
  _atom_site_label
  _atom_site_symmetry_multiplicity
  _atom_site_fract_x
  _atom_site_fract_y
  _atom_site_fract_z
  _atom_site_occupancy
  Ag  Ag1       1.0  0.42542  0.33855  0.53851  1.0000
  Ag  Ag2       1.0  0.57458  0.66143  0.46149  1.0000
  H   H1        1.0  0.93219  0.30347  0.51174  1.0000
  H   H2        1.0  0.06782  0.69652  0.48827  1.0000
  H   H3        1.0  0.92068  0.42468  0.62475  1.0000
  H   H4        1.0  0.07933  0.57531  0.37526  1.0000
  H   H5        1.0  0.35351  0.28325  0.17174  1.0000
  H   H6        1.0  0.64649  0.71675  0.82826  1.0000
  H   H7        1.0  0.95307  0.36765  0.18521  1.0000
  H   H8        1.0  0.04692  0.63237  0.81479  1.0000
  H   H9        1.0  0.81469  0.98887  0.53455  1.0000
  H   H10       1.0  0.18532  0.01112  0.46546  1.0000
  H   H11       1.0  0.69138  0.89390  0.65496  1.0000
  H   H12       1.0  0.30863  0.10608  0.34504  1.0000
  H   H13       1.0  0.95919  0.88019  0.66153  1.0000
  H   H14       1.0  0.04082  0.11981  0.33848  1.0000
  H   H15       1.0  0.02359  0.30119  0.99358  1.0000
  H   H16       1.0  0.97640  0.69885  0.00641  1.0000
  H   H17       1.0  0.75633  0.22245  0.89127  1.0000
  H   H18       1.0  0.24366  0.77755  0.10873  1.0000
  H   H19       1.0  0.42145  0.21444  0.98056  1.0000
  H   H20       1.0  0.57855  0.78557  0.01943  1.0000
  H   H21       1.0  0.18150  0.32667  0.78417  1.0000
  H   H22       1.0  0.81851  0.67332  0.21583  1.0000
  H   H23       1.0  0.37201  0.10684  0.81259  1.0000
  H   H24       1.0  0.62800  0.89315  0.18741  1.0000
  H   H25       1.0  0.10972  0.10957  0.83644  1.0000
  H   H26       1.0  0.89029  0.89042  0.16356  1.0000
  C   C1        1.0  0.65002  0.32734  0.19076  1.0000
  C   C2        1.0  0.35000  0.67266  0.80924  1.0000
  C   C3        1.0  0.94594  0.28665  0.60256  1.0000
  C   C4        1.0  0.05406  0.71334  0.39745  1.0000
  C   C5        1.0  0.61064  0.36554  0.30696  1.0000
  C   C6        1.0  0.38934  0.63447  0.69302  1.0000
  C   C7        1.0  0.50035  0.28508  0.13218  1.0000
  C   C8        1.0  0.49964  0.71493  0.86781  1.0000
  C   C9        1.0  0.83815  0.33312  0.13954  1.0000
  C   C10       1.0  0.16183  0.66690  0.86046  1.0000
  C   C11       1.0  0.81055  0.96584  0.62582  1.0000
  C   C12       1.0  0.18946  0.03415  0.37419  1.0000
  C   C13       1.0  0.87699  0.29505  0.03261  1.0000
  C   C14       1.0  0.12301  0.70495  0.96739  1.0000
  C   C15       1.0  0.72759  0.25131  0.97524  1.0000
  C   C16       1.0  0.27239  0.74870  0.02476  1.0000
  C   C17       1.0  0.53916  0.24681  0.02536  1.0000
  C   C18       1.0  0.46086  0.75318  0.97464  1.0000
  C   C19       1.0  0.21458  0.17682  0.78369  1.0000
  C   C20       1.0  0.78542  0.82317  0.21631  1.0000
  S   S1        1.0  0.74291  0.18883  0.66852  1.0000
  S   S2        1.0  0.25710  0.81117  0.33149  1.0000
  S   S3        1.0  0.20083  0.14417  0.64277  1.0000
  S   S4        1.0  0.79918  0.85582  0.35724  1.0000
  O   O1        1.0  0.43860  0.35074  0.35014  1.0000
  O   O2        1.0  0.56139  0.64928  0.64985  1.0000
  O   O3        1.0  0.74819  0.41109  0.35417  1.0000
  O   O4        1.0  0.25181  0.58892  0.64582  1.0000
