data_image0
_chemical_formula_structural       Na2H32C28N8O4
_chemical_formula_sum              "Na2 H32 C28 N8 O4"
_cell_length_a       8.36789
_cell_length_b       10.0352
_cell_length_c       11.0121
_cell_angle_alpha    113.119
_cell_angle_beta     89.9828
_cell_angle_gamma    114.817

_space_group_name_H-M_alt    "P 1"
_space_group_IT_number       1

loop_
  _space_group_symop_operation_xyz
  'x, y, z'

loop_
  _atom_site_type_symbol
  _atom_site_label
  _atom_site_symmetry_multiplicity
  _atom_site_fract_x
  _atom_site_fract_y
  _atom_site_fract_z
  _atom_site_occupancy
  Na  Na1       1.0  0.90539  0.99987  0.75029  1.0000
  Na  Na2       1.0  0.09461  0.00013  0.24971  1.0000
  H   H1        1.0  0.38813  0.46988  0.70237  1.0000
  H   H2        1.0  0.91960  0.53034  0.79753  1.0000
  H   H3        1.0  0.61187  0.53012  0.29763  1.0000
  H   H4        1.0  0.08040  0.46966  0.20248  1.0000
  H   H5        1.0  0.37392  0.69283  0.81551  1.0000
  H   H6        1.0  0.68134  0.30721  0.68431  1.0000
  H   H7        1.0  0.62608  0.30717  0.18449  1.0000
  H   H8        1.0  0.31867  0.69279  0.31569  1.0000
  H   H9        1.0  0.53386  0.90127  0.90559  1.0000
  H   H10       1.0  0.63184  0.09887  0.59409  1.0000
  H   H11       1.0  0.46614  0.09873  0.09441  1.0000
  H   H12       1.0  0.36816  0.90113  0.40591  1.0000
  H   H13       1.0  0.74849  0.82932  0.98134  1.0000
  H   H14       1.0  0.91935  0.17139  0.51889  1.0000
  H   H15       1.0  0.25150  0.17068  0.01866  1.0000
  H   H16       1.0  0.08066  0.82861  0.48112  1.0000
  H   H17       1.0  0.60669  0.61886  0.88780  1.0000
  H   H18       1.0  0.98872  0.38181  0.61235  1.0000
  H   H19       1.0  0.39331  0.38115  0.11220  1.0000
  H   H20       1.0  0.01128  0.61819  0.38765  1.0000
  H   H21       1.0  0.58853  0.72741  0.13723  1.0000
  H   H22       1.0  0.86205  0.27293  0.36272  1.0000
  H   H23       1.0  0.41147  0.27259  0.86277  1.0000
  H   H24       1.0  0.13796  0.72707  0.63728  1.0000
  H   H25       1.0  0.37630  0.63371  0.02846  1.0000
  H   H26       1.0  0.74338  0.36620  0.47113  1.0000
  H   H27       1.0  0.62369  0.36628  0.97154  1.0000
  H   H28       1.0  0.25662  0.63380  0.52886  1.0000
  H   H29       1.0  0.50017  0.84928  0.11368  1.0000
  H   H30       1.0  0.65106  0.15068  0.38605  1.0000
  H   H31       1.0  0.49983  0.15072  0.88632  1.0000
  H   H32       1.0  0.34895  0.84932  0.61395  1.0000
  C   C1        1.0  0.61441  0.65624  0.50716  1.0000
  C   C2        1.0  0.95816  0.34391  0.99261  1.0000
  C   C3        1.0  0.38559  0.34376  0.49284  1.0000
  C   C4        1.0  0.04183  0.65609  0.00739  1.0000
  C   C5        1.0  0.54949  0.63851  0.62425  1.0000
  C   C6        1.0  0.91144  0.36164  0.87551  1.0000
  C   C7        1.0  0.45051  0.36149  0.37576  1.0000
  C   C8        1.0  0.08856  0.63836  0.12449  1.0000
  C   C9        1.0  0.43810  0.48558  0.61513  1.0000
  C   C10       1.0  0.95356  0.51454  0.88475  1.0000
  C   C11       1.0  0.56190  0.51442  0.38486  1.0000
  C   C12       1.0  0.04644  0.48546  0.11525  1.0000
  C   C13       1.0  0.78060  0.83398  0.41886  1.0000
  C   C14       1.0  0.94755  0.16701  0.08104  1.0000
  C   C15       1.0  0.21940  0.16602  0.58115  1.0000
  C   C16       1.0  0.05246  0.83299  0.91897  1.0000
  C   C17       1.0  0.51850  0.77707  0.85181  1.0000
  C   C18       1.0  0.74134  0.22311  0.64799  1.0000
  C   C19       1.0  0.48149  0.22293  0.14818  1.0000
  C   C20       1.0  0.25866  0.77689  0.35201  1.0000
  C   C21       1.0  0.60741  0.73727  0.94401  1.0000
  C   C22       1.0  0.87057  0.26324  0.55599  1.0000
  C   C23       1.0  0.39259  0.26273  0.05598  1.0000
  C   C24       1.0  0.12944  0.73676  0.44401  1.0000
  C   C25       1.0  0.51219  0.73613  0.06215  1.0000
  C   C26       1.0  0.77668  0.26407  0.43766  1.0000
  C   C27       1.0  0.48780  0.26387  0.93785  1.0000
  C   C28       1.0  0.22333  0.73593  0.56234  1.0000
  N   N1        1.0  0.71943  0.80984  0.52079  1.0000
  N   N2        1.0  0.91131  0.19057  0.97862  1.0000
  N   N3        1.0  0.28057  0.19015  0.47921  1.0000
  N   N4        1.0  0.08868  0.80943  0.02138  1.0000
  N   N5        1.0  0.84319  0.86915  0.33296  1.0000
  N   N6        1.0  0.97591  0.13282  0.16727  1.0000
  N   N7        1.0  0.15682  0.13085  0.66704  1.0000
  N   N8        1.0  0.02409  0.86719  0.83273  1.0000
  O   O1        1.0  0.60174  0.78010  0.73663  1.0000
  O   O2        1.0  0.82155  0.22005  0.76307  1.0000
  O   O3        1.0  0.39826  0.21990  0.26337  1.0000
  O   O4        1.0  0.17845  0.77995  0.23693  1.0000
