data_image0
_chemical_formula_structural       Ag4H32C24S8O8F12
_chemical_formula_sum              "Ag4 H32 C24 S8 O8 F12"
_cell_length_a       6.90638
_cell_length_b       8.25063
_cell_length_c       17.2626
_cell_angle_alpha    90.0014
_cell_angle_beta     90
_cell_angle_gamma    89.9999

_space_group_name_H-M_alt    "P 1"
_space_group_IT_number       1

loop_
  _space_group_symop_operation_xyz
  'x, y, z'

loop_
  _atom_site_type_symbol
  _atom_site_label
  _atom_site_symmetry_multiplicity
  _atom_site_fract_x
  _atom_site_fract_y
  _atom_site_fract_z
  _atom_site_occupancy
  Ag  Ag1       1.0  0.27680  0.57094  0.22482  1.0000
  Ag  Ag2       1.0  0.22320  0.42906  0.72482  1.0000
  Ag  Ag3       1.0  0.77680  0.92906  0.77517  1.0000
  Ag  Ag4       1.0  0.72320  0.07094  0.27518  1.0000
  H   H1        1.0  0.77827  0.47557  0.28622  1.0000
  H   H2        1.0  0.72174  0.52443  0.78621  1.0000
  H   H3        1.0  0.27826  0.02443  0.71378  1.0000
  H   H4        1.0  0.22174  0.97556  0.21378  1.0000
  H   H5        1.0  0.93671  0.51730  0.36689  1.0000
  H   H6        1.0  0.56331  0.48270  0.86688  1.0000
  H   H7        1.0  0.43670  0.98270  0.63311  1.0000
  H   H8        1.0  0.06331  0.01730  0.13312  1.0000
  H   H9        1.0  0.98340  0.29655  0.48152  1.0000
  H   H10       1.0  0.51662  0.70345  0.98151  1.0000
  H   H11       1.0  0.48339  0.20345  0.51848  1.0000
  H   H12       1.0  0.01661  0.79654  0.01848  1.0000
  H   H13       1.0  0.87711  0.10099  0.47796  1.0000
  H   H14       1.0  0.62291  0.89901  0.97796  1.0000
  H   H15       1.0  0.37711  0.39901  0.52204  1.0000
  H   H16       1.0  0.12290  0.60098  0.02204  1.0000
  H   H17       1.0  0.07672  0.02570  0.36433  1.0000
  H   H18       1.0  0.42329  0.97430  0.86434  1.0000
  H   H19       1.0  0.57671  0.47429  0.63567  1.0000
  H   H20       1.0  0.92329  0.52571  0.13566  1.0000
  H   H21       1.0  0.22249  0.08497  0.44291  1.0000
  H   H22       1.0  0.27752  0.91502  0.94292  1.0000
  H   H23       1.0  0.72249  0.41503  0.55709  1.0000
  H   H24       1.0  0.77751  0.58498  0.05709  1.0000
  H   H25       1.0  0.34822  0.19849  0.32048  1.0000
  H   H26       1.0  0.15179  0.80151  0.82048  1.0000
  H   H27       1.0  0.84821  0.30151  0.67952  1.0000
  H   H28       1.0  0.65179  0.69849  0.17952  1.0000
  H   H29       1.0  0.27908  0.35838  0.38320  1.0000
  H   H30       1.0  0.22093  0.64162  0.88320  1.0000
  H   H31       1.0  0.77908  0.14162  0.61680  1.0000
  H   H32       1.0  0.72092  0.85839  0.11680  1.0000
  C   C1        1.0  0.88192  0.42357  0.32741  1.0000
  C   C2        1.0  0.61809  0.57644  0.82741  1.0000
  C   C3        1.0  0.38192  0.07643  0.67259  1.0000
  C   C4        1.0  0.11809  0.92356  0.17259  1.0000
  C   C5        1.0  0.94375  0.19640  0.44267  1.0000
  C   C6        1.0  0.55627  0.80361  0.94267  1.0000
  C   C7        1.0  0.44375  0.30361  0.55733  1.0000
  C   C8        1.0  0.05626  0.69639  0.05733  1.0000
  C   C9        1.0  0.11916  0.13079  0.39965  1.0000
  C   C10       1.0  0.38084  0.86921  0.89965  1.0000
  C   C11       1.0  0.61916  0.36921  0.60035  1.0000
  C   C12       1.0  0.88084  0.63080  0.10034  1.0000
  C   C13       1.0  0.22408  0.25483  0.34975  1.0000
  C   C14       1.0  0.27593  0.74517  0.84975  1.0000
  C   C15       1.0  0.72407  0.24517  0.65025  1.0000
  C   C16       1.0  0.77593  0.75483  0.15025  1.0000
  C   C17       1.0  0.52412  0.25909  0.14398  1.0000
  C   C18       1.0  0.97588  0.74093  0.64397  1.0000
  C   C19       1.0  0.02411  0.24091  0.85602  1.0000
  C   C20       1.0  0.47587  0.75907  0.35603  1.0000
  C   C21       1.0  0.39953  0.28855  0.06968  1.0000
  C   C22       1.0  0.10045  0.71145  0.56968  1.0000
  C   C23       1.0  0.89953  0.21145  0.93032  1.0000
  C   C24       1.0  0.60045  0.78854  0.43033  1.0000
  S   S1        1.0  0.07631  0.33545  0.27133  1.0000
  S   S2        1.0  0.42369  0.66455  0.77132  1.0000
  S   S3        1.0  0.57631  0.16454  0.72867  1.0000
  S   S4        1.0  0.92369  0.83545  0.22868  1.0000
  S   S5        1.0  0.74930  0.27146  0.38106  1.0000
  S   S6        1.0  0.75071  0.72854  0.88105  1.0000
  S   S7        1.0  0.24930  0.22854  0.61894  1.0000
  S   S8        1.0  0.25071  0.77146  0.11894  1.0000
  O   O1        1.0  0.55773  0.38202  0.18470  1.0000
  O   O2        1.0  0.94226  0.61800  0.68470  1.0000
  O   O3        1.0  0.05773  0.11800  0.81530  1.0000
  O   O4        1.0  0.44227  0.88202  0.31530  1.0000
  O   O5        1.0  0.56845  0.11267  0.15543  1.0000
  O   O6        1.0  0.93155  0.88737  0.65542  1.0000
  O   O7        1.0  0.06846  0.38736  0.84458  1.0000
  O   O8        1.0  0.43150  0.61266  0.34458  1.0000
  F   F1        1.0  0.45222  0.42656  0.03060  1.0000
  F   F2        1.0  0.04773  0.57345  0.53059  1.0000
  F   F3        1.0  0.95224  0.07345  0.96941  1.0000
  F   F4        1.0  0.54774  0.92653  0.46942  1.0000
  F   F5        1.0  0.20881  0.30772  0.09026  1.0000
  F   F6        1.0  0.29118  0.69225  0.59025  1.0000
  F   F7        1.0  0.70881  0.19227  0.90975  1.0000
  F   F8        1.0  0.79118  0.80775  0.40975  1.0000
  F   F9        1.0  0.40534  0.16506  0.01797  1.0000
  F   F10       1.0  0.09467  0.83495  0.51797  1.0000
  F   F11       1.0  0.90533  0.33495  0.98203  1.0000
  F   F12       1.0  0.59468  0.66503  0.48202  1.0000
