data_image0
_chemical_formula_structural       Sr4H16C20N8O20
_chemical_formula_sum              "Sr4 H16 C20 N8 O20"
_cell_length_a       6.17937
_cell_length_b       9.27659
_cell_length_c       12.0404
_cell_angle_alpha    90
_cell_angle_beta     90
_cell_angle_gamma    99.5223

_space_group_name_H-M_alt    "P 1"
_space_group_IT_number       1

loop_
  _space_group_symop_operation_xyz
  'x, y, z'

loop_
  _atom_site_type_symbol
  _atom_site_label
  _atom_site_symmetry_multiplicity
  _atom_site_fract_x
  _atom_site_fract_y
  _atom_site_fract_z
  _atom_site_occupancy
  Sr  Sr1       1.0  0.23569  0.00730  0.37831  1.0000
  Sr  Sr2       1.0  0.73569  0.00730  0.12169  1.0000
  Sr  Sr3       1.0  0.76431  0.99270  0.62169  1.0000
  Sr  Sr4       1.0  0.26431  0.99270  0.87831  1.0000
  H   H1        1.0  0.97854  0.74839  0.23680  1.0000
  H   H2        1.0  0.47854  0.74839  0.26320  1.0000
  H   H3        1.0  0.02146  0.25161  0.76320  1.0000
  H   H4        1.0  0.52146  0.25161  0.73680  1.0000
  H   H5        1.0  0.15048  0.84695  0.15522  1.0000
  H   H6        1.0  0.65048  0.84694  0.34478  1.0000
  H   H7        1.0  0.84953  0.15305  0.84478  1.0000
  H   H8        1.0  0.34952  0.15306  0.65522  1.0000
  H   H9        1.0  0.13326  0.59259  0.79586  1.0000
  H   H10       1.0  0.63326  0.59259  0.70414  1.0000
  H   H11       1.0  0.86673  0.40741  0.20414  1.0000
  H   H12       1.0  0.36673  0.40741  0.29586  1.0000
  H   H13       1.0  0.31328  0.59867  0.45801  1.0000
  H   H14       1.0  0.81328  0.59867  0.04199  1.0000
  H   H15       1.0  0.68672  0.40133  0.54199  1.0000
  H   H16       1.0  0.18671  0.40133  0.95801  1.0000
  C   C1        1.0  0.19653  0.28468  0.51328  1.0000
  C   C2        1.0  0.69653  0.28468  0.98672  1.0000
  C   C3        1.0  0.80347  0.71532  0.48672  1.0000
  C   C4        1.0  0.30347  0.71532  0.01328  1.0000
  C   C5        1.0  0.19907  0.41954  0.57929  1.0000
  C   C6        1.0  0.69907  0.41954  0.92071  1.0000
  C   C7        1.0  0.80094  0.58046  0.42072  1.0000
  C   C8        1.0  0.30093  0.58046  0.07929  1.0000
  C   C9        1.0  0.25730  0.56342  0.54022  1.0000
  C   C10       1.0  0.75730  0.56342  0.95978  1.0000
  C   C11       1.0  0.74270  0.43658  0.45978  1.0000
  C   C12       1.0  0.24270  0.43658  0.04022  1.0000
  C   C13       1.0  0.21911  0.65176  0.62852  1.0000
  C   C14       1.0  0.71911  0.65176  0.87148  1.0000
  C   C15       1.0  0.78089  0.34824  0.37148  1.0000
  C   C16       1.0  0.28089  0.34824  0.12852  1.0000
  C   C17       1.0  0.23238  0.81282  0.63050  1.0000
  C   C18       1.0  0.73239  0.81282  0.86950  1.0000
  C   C19       1.0  0.76761  0.18718  0.36950  1.0000
  C   C20       1.0  0.26762  0.18718  0.13050  1.0000
  N   N1        1.0  0.13395  0.41897  0.68711  1.0000
  N   N2        1.0  0.63395  0.41897  0.81289  1.0000
  N   N3        1.0  0.86605  0.58103  0.31289  1.0000
  N   N4        1.0  0.36605  0.58103  0.18711  1.0000
  N   N5        1.0  0.14498  0.56003  0.71412  1.0000
  N   N6        1.0  0.64498  0.56003  0.78588  1.0000
  N   N7        1.0  0.85502  0.43997  0.28588  1.0000
  N   N8        1.0  0.35501  0.43997  0.21412  1.0000
  O   O1        1.0  0.26965  0.29594  0.41530  1.0000
  O   O2        1.0  0.76965  0.29594  0.08470  1.0000
  O   O3        1.0  0.73035  0.70406  0.58470  1.0000
  O   O4        1.0  0.23035  0.70406  0.91530  1.0000
  O   O5        1.0  0.12168  0.15978  0.55785  1.0000
  O   O6        1.0  0.62168  0.15978  0.94215  1.0000
  O   O7        1.0  0.87832  0.84023  0.44214  1.0000
  O   O8        1.0  0.37832  0.84022  0.05785  1.0000
  O   O9        1.0  0.35376  0.88390  0.55667  1.0000
  O   O10       1.0  0.85377  0.88390  0.94333  1.0000
  O   O11       1.0  0.64623  0.11610  0.44333  1.0000
  O   O12       1.0  0.14624  0.11610  0.05667  1.0000
  O   O13       1.0  0.11793  0.86864  0.70144  1.0000
  O   O14       1.0  0.61793  0.86864  0.79856  1.0000
  O   O15       1.0  0.88207  0.13135  0.29856  1.0000
  O   O16       1.0  0.38207  0.13136  0.20144  1.0000
  O   O17       1.0  0.02685  0.84922  0.20704  1.0000
  O   O18       1.0  0.52685  0.84922  0.29296  1.0000
  O   O19       1.0  0.97315  0.15078  0.79296  1.0000
  O   O20       1.0  0.47314  0.15078  0.70704  1.0000
