data_image0
_chemical_formula_structural       Ba2H28C20N8O24
_chemical_formula_sum              "Ba2 H28 C20 N8 O24"
_cell_length_a       6.39314
_cell_length_b       10.4914
_cell_length_c       13.8683
_cell_angle_alpha    93.0125
_cell_angle_beta     103.308
_cell_angle_gamma    107.725

_space_group_name_H-M_alt    "P 1"
_space_group_IT_number       1

loop_
  _space_group_symop_operation_xyz
  'x, y, z'

loop_
  _atom_site_type_symbol
  _atom_site_label
  _atom_site_symmetry_multiplicity
  _atom_site_fract_x
  _atom_site_fract_y
  _atom_site_fract_z
  _atom_site_occupancy
  Ba  Ba1       1.0  0.46791  0.25005  0.25006  1.0000
  Ba  Ba2       1.0  0.53209  0.74995  0.74994  1.0000
  H   H1        1.0  0.26060  0.03329  0.02716  1.0000
  H   H2        1.0  0.29984  0.53312  0.52700  1.0000
  H   H3        1.0  0.73940  0.96671  0.97284  1.0000
  H   H4        1.0  0.70016  0.46688  0.47300  1.0000
  H   H5        1.0  0.05540  0.29588  0.33734  1.0000
  H   H6        1.0  0.07770  0.79597  0.83736  1.0000
  H   H7        1.0  0.94460  0.70412  0.66266  1.0000
  H   H8        1.0  0.92230  0.20403  0.16264  1.0000
  H   H9        1.0  0.16950  0.24235  0.43092  1.0000
  H   H10       1.0  0.00346  0.74240  0.93091  1.0000
  H   H11       1.0  0.83051  0.75766  0.56908  1.0000
  H   H12       1.0  0.99654  0.25760  0.06909  1.0000
  H   H13       1.0  0.72153  0.01074  0.16661  1.0000
  H   H14       1.0  0.95601  0.51082  0.66660  1.0000
  H   H15       1.0  0.27847  0.98926  0.83339  1.0000
  H   H16       1.0  0.04399  0.48918  0.33340  1.0000
  H   H17       1.0  0.87556  0.09956  0.27406  1.0000
  H   H18       1.0  0.99818  0.59964  0.77405  1.0000
  H   H19       1.0  0.12444  0.90044  0.72594  1.0000
  H   H20       1.0  0.00182  0.40036  0.22595  1.0000
  H   H21       1.0  0.33975  0.99760  0.44465  1.0000
  H   H22       1.0  0.60208  0.49777  0.94443  1.0000
  H   H23       1.0  0.66026  0.00241  0.55535  1.0000
  H   H24       1.0  0.39792  0.50223  0.05557  1.0000
  H   H25       1.0  0.13692  0.65028  0.23232  1.0000
  H   H26       1.0  0.24535  0.15025  0.73228  1.0000
  H   H27       1.0  0.86307  0.34972  0.76768  1.0000
  H   H28       1.0  0.75465  0.84975  0.26772  1.0000
  C   C1        1.0  0.17693  0.88457  0.11735  1.0000
  C   C2        1.0  0.32510  0.38444  0.61723  1.0000
  C   C3        1.0  0.82307  0.11542  0.88265  1.0000
  C   C4        1.0  0.67490  0.61556  0.38276  1.0000
  C   C5        1.0  0.20289  0.87033  0.22421  1.0000
  C   C6        1.0  0.39180  0.37021  0.72406  1.0000
  C   C7        1.0  0.79711  0.12967  0.77579  1.0000
  C   C8        1.0  0.60820  0.62979  0.27594  1.0000
  C   C9        1.0  0.18347  0.75185  0.26955  1.0000
  C   C10       1.0  0.33779  0.25182  0.76946  1.0000
  C   C11       1.0  0.81653  0.24815  0.73045  1.0000
  C   C12       1.0  0.66221  0.74818  0.23054  1.0000
  C   C13       1.0  0.24178  0.79460  0.37161  1.0000
  C   C14       1.0  0.42422  0.29467  0.87151  1.0000
  C   C15       1.0  0.75822  0.20540  0.62839  1.0000
  C   C16       1.0  0.57577  0.70532  0.12849  1.0000
  C   C17       1.0  0.40602  0.22298  0.96026  1.0000
  C   C18       1.0  0.27674  0.72279  0.46031  1.0000
  C   C19       1.0  0.59398  0.77702  0.03974  1.0000
  C   C20       1.0  0.72325  0.27721  0.53969  1.0000
  N   N1        1.0  0.26647  0.97940  0.29352  1.0000
  N   N2        1.0  0.50662  0.47933  0.79331  1.0000
  N   N3        1.0  0.73354  0.02060  0.70648  1.0000
  N   N4        1.0  0.49338  0.52067  0.20669  1.0000
  N   N5        1.0  0.28705  0.93137  0.38078  1.0000
  N   N6        1.0  0.52507  0.43140  0.88061  1.0000
  N   N7        1.0  0.71295  0.06863  0.61922  1.0000
  N   N8        1.0  0.47493  0.56859  0.11939  1.0000
  O   O1        1.0  0.23561  0.01142  0.09943  1.0000
  O   O2        1.0  0.37535  0.51125  0.59927  1.0000
  O   O3        1.0  0.76440  0.98858  0.90057  1.0000
  O   O4        1.0  0.62465  0.48875  0.40073  1.0000
  O   O5        1.0  0.11067  0.78273  0.05463  1.0000
  O   O6        1.0  0.22662  0.28253  0.55452  1.0000
  O   O7        1.0  0.88933  0.21727  0.94537  1.0000
  O   O8        1.0  0.77338  0.71747  0.44547  1.0000
  O   O9        1.0  0.46910  0.29242  0.04477  1.0000
  O   O10       1.0  0.36706  0.79216  0.54487  1.0000
  O   O11       1.0  0.53090  0.70758  0.95523  1.0000
  O   O12       1.0  0.63293  0.20784  0.45513  1.0000
  O   O13       1.0  0.31823  0.09295  0.94204  1.0000
  O   O14       1.0  0.21673  0.59279  0.44200  1.0000
  O   O15       1.0  0.68177  0.90704  0.05796  1.0000
  O   O16       1.0  0.78327  0.40721  0.55800  1.0000
  O   O17       1.0  0.12637  0.22549  0.35660  1.0000
  O   O18       1.0  0.95566  0.72554  0.85661  1.0000
  O   O19       1.0  0.87363  0.77451  0.64340  1.0000
  O   O20       1.0  0.04435  0.27445  0.14339  1.0000
  O   O21       1.0  0.74208  0.08788  0.21704  1.0000
  O   O22       1.0  0.06303  0.58793  0.71703  1.0000
  O   O23       1.0  0.25792  0.91211  0.78296  1.0000
  O   O24       1.0  0.93697  0.41207  0.28297  1.0000
