data_image0
_chemical_formula_structural       Ba4H16C20N8O20
_chemical_formula_sum              "Ba4 H16 C20 N8 O20"
_cell_length_a       7.21651
_cell_length_b       10.174
_cell_length_c       10.5483
_cell_angle_alpha    90
_cell_angle_beta     90
_cell_angle_gamma    101.721

_space_group_name_H-M_alt    "P 1"
_space_group_IT_number       1

loop_
  _space_group_symop_operation_xyz
  'x, y, z'

loop_
  _atom_site_type_symbol
  _atom_site_label
  _atom_site_symmetry_multiplicity
  _atom_site_fract_x
  _atom_site_fract_y
  _atom_site_fract_z
  _atom_site_occupancy
  Ba  Ba1       1.0  0.16574  0.26151  0.14668  1.0000
  Ba  Ba2       1.0  0.33426  0.73849  0.64668  1.0000
  Ba  Ba3       1.0  0.83426  0.73849  0.85332  1.0000
  Ba  Ba4       1.0  0.66574  0.26151  0.35332  1.0000
  H   H1        1.0  0.70323  0.95082  0.42321  1.0000
  H   H2        1.0  0.79677  0.04918  0.92321  1.0000
  H   H3        1.0  0.29677  0.04918  0.57679  1.0000
  H   H4        1.0  0.20323  0.95082  0.07679  1.0000
  H   H5        1.0  0.14325  0.36630  0.43734  1.0000
  H   H6        1.0  0.35675  0.63370  0.93734  1.0000
  H   H7        1.0  0.85675  0.63370  0.56266  1.0000
  H   H8        1.0  0.64325  0.36630  0.06266  1.0000
  H   H9        1.0  0.55880  0.66312  0.12501  1.0000
  H   H10       1.0  0.94120  0.33688  0.62501  1.0000
  H   H11       1.0  0.44120  0.33688  0.87499  1.0000
  H   H12       1.0  0.05880  0.66312  0.37499  1.0000
  H   H13       1.0  0.07045  0.21132  0.46683  1.0000
  H   H14       1.0  0.42954  0.78868  0.96683  1.0000
  H   H15       1.0  0.92954  0.78868  0.53317  1.0000
  H   H16       1.0  0.57046  0.21132  0.03317  1.0000
  C   C1        1.0  0.75129  0.95780  0.15146  1.0000
  C   C2        1.0  0.74871  0.04220  0.65146  1.0000
  C   C3        1.0  0.24870  0.04220  0.84854  1.0000
  C   C4        1.0  0.25130  0.95780  0.34854  1.0000
  C   C5        1.0  0.57659  0.71491  0.21507  1.0000
  C   C6        1.0  0.92341  0.28509  0.71507  1.0000
  C   C7        1.0  0.42341  0.28509  0.78493  1.0000
  C   C8        1.0  0.07659  0.71491  0.28492  1.0000
  C   C9        1.0  0.51350  0.66249  0.33417  1.0000
  C   C10       1.0  0.98650  0.33751  0.83417  1.0000
  C   C11       1.0  0.48650  0.33751  0.66583  1.0000
  C   C12       1.0  0.01350  0.66249  0.16583  1.0000
  C   C13       1.0  0.66499  0.84778  0.23853  1.0000
  C   C14       1.0  0.83501  0.15222  0.73853  1.0000
  C   C15       1.0  0.33501  0.15222  0.76147  1.0000
  C   C16       1.0  0.16499  0.84778  0.26147  1.0000
  C   C17       1.0  0.39917  0.52817  0.36615  1.0000
  C   C18       1.0  0.10083  0.47183  0.86615  1.0000
  C   C19       1.0  0.60083  0.47183  0.63385  1.0000
  C   C20       1.0  0.89917  0.52817  0.13385  1.0000
  N   N1        1.0  0.65442  0.86609  0.36632  1.0000
  N   N2        1.0  0.84558  0.13391  0.86632  1.0000
  N   N3        1.0  0.34558  0.13391  0.63368  1.0000
  N   N4        1.0  0.15442  0.86609  0.13368  1.0000
  N   N5        1.0  0.56146  0.75634  0.42534  1.0000
  N   N6        1.0  0.93854  0.24366  0.92534  1.0000
  N   N7        1.0  0.43854  0.24366  0.57466  1.0000
  N   N8        1.0  0.06146  0.75634  0.07466  1.0000
  O   O1        1.0  0.41721  0.43156  0.29315  1.0000
  O   O2        1.0  0.08279  0.56844  0.79315  1.0000
  O   O3        1.0  0.58279  0.56844  0.70685  1.0000
  O   O4        1.0  0.91721  0.43156  0.20685  1.0000
  O   O5        1.0  0.28890  0.51772  0.46174  1.0000
  O   O6        1.0  0.21110  0.48228  0.96174  1.0000
  O   O7        1.0  0.71110  0.48228  0.53826  1.0000
  O   O8        1.0  0.78890  0.51772  0.03826  1.0000
  O   O9        1.0  0.82328  0.07166  0.19983  1.0000
  O   O10       1.0  0.67672  0.92835  0.69983  1.0000
  O   O11       1.0  0.17672  0.92834  0.80017  1.0000
  O   O12       1.0  0.32328  0.07165  0.30017  1.0000
  O   O13       1.0  0.05114  0.28266  0.40999  1.0000
  O   O14       1.0  0.44886  0.71734  0.90999  1.0000
  O   O15       1.0  0.94886  0.71734  0.59001  1.0000
  O   O16       1.0  0.55114  0.28266  0.09001  1.0000
  O   O17       1.0  0.74464  0.92972  0.03326  1.0000
  O   O18       1.0  0.75537  0.07028  0.53325  1.0000
  O   O19       1.0  0.25536  0.07028  0.96674  1.0000
  O   O20       1.0  0.24464  0.92972  0.46674  1.0000
