data_image0
_chemical_formula_structural       Ba4H16C20N8O20
_chemical_formula_sum              "Ba4 H16 C20 N8 O20"
_cell_length_a       6.97254
_cell_length_b       9.96783
_cell_length_c       11.5413
_cell_angle_alpha    75.618
_cell_angle_beta     73.491
_cell_angle_gamma    86.2696

_space_group_name_H-M_alt    "P 1"
_space_group_IT_number       1

loop_
  _space_group_symop_operation_xyz
  'x, y, z'

loop_
  _atom_site_type_symbol
  _atom_site_label
  _atom_site_symmetry_multiplicity
  _atom_site_fract_x
  _atom_site_fract_y
  _atom_site_fract_z
  _atom_site_occupancy
  Ba  Ba1       1.0  0.88250  0.18650  0.84655  1.0000
  Ba  Ba2       1.0  0.11749  0.81350  0.15345  1.0000
  Ba  Ba3       1.0  0.59700  0.93843  0.65833  1.0000
  Ba  Ba4       1.0  0.40300  0.06157  0.34167  1.0000
  H   H1        1.0  0.40139  0.08411  0.90463  1.0000
  H   H2        1.0  0.59861  0.91589  0.09537  1.0000
  H   H3        1.0  0.44261  0.17787  0.77487  1.0000
  H   H4        1.0  0.55739  0.82213  0.22513  1.0000
  H   H5        1.0  0.12072  0.02963  0.61187  1.0000
  H   H6        1.0  0.87927  0.97037  0.38813  1.0000
  H   H7        1.0  0.14650  0.87123  0.63218  1.0000
  H   H8        1.0  0.85350  0.12877  0.36782  1.0000
  H   H9        1.0  0.58056  0.56897  0.67358  1.0000
  H   H10       1.0  0.41944  0.43103  0.32642  1.0000
  H   H11       1.0  0.89005  0.65062  0.76339  1.0000
  H   H12       1.0  0.10995  0.34938  0.23661  1.0000
  H   H13       1.0  0.87061  0.48927  0.32115  1.0000
  H   H14       1.0  0.12939  0.51073  0.67886  1.0000
  H   H15       1.0  0.68868  0.61042  0.15287  1.0000
  H   H16       1.0  0.31132  0.38958  0.84713  1.0000
  C   C1        1.0  0.95181  0.24255  0.50748  1.0000
  C   C2        1.0  0.04819  0.75745  0.49252  1.0000
  C   C3        1.0  0.83716  0.37059  0.51790  1.0000
  C   C4        1.0  0.16283  0.62941  0.48210  1.0000
  C   C5        1.0  0.81635  0.48091  0.42026  1.0000
  C   C6        1.0  0.18365  0.51908  0.57973  1.0000
  C   C7        1.0  0.70583  0.57920  0.47773  1.0000
  C   C8        1.0  0.29416  0.42081  0.52227  1.0000
  C   C9        1.0  0.64810  0.71804  0.41579  1.0000
  C   C10       1.0  0.35189  0.28196  0.58421  1.0000
  C   C11       1.0  0.64697  0.32628  0.11732  1.0000
  C   C12       1.0  0.35303  0.67372  0.88268  1.0000
  C   C13       1.0  0.72780  0.46089  0.03112  1.0000
  C   C14       1.0  0.27221  0.53911  0.96888  1.0000
  C   C15       1.0  0.73457  0.58845  0.06157  1.0000
  C   C16       1.0  0.26544  0.41155  0.93843  1.0000
  C   C17       1.0  0.80970  0.68277  0.94813  1.0000
  C   C18       1.0  0.19031  0.31723  0.05186  1.0000
  C   C19       1.0  0.83954  0.83497  0.91769  1.0000
  C   C20       1.0  0.16046  0.16503  0.08231  1.0000
  N   N1        1.0  0.74352  0.39784  0.63009  1.0000
  N   N2        1.0  0.25648  0.60216  0.36991  1.0000
  N   N3        1.0  0.66578  0.52417  0.60302  1.0000
  N   N4        1.0  0.33421  0.47583  0.39698  1.0000
  N   N5        1.0  0.79734  0.47480  0.90631  1.0000
  N   N6        1.0  0.20267  0.52520  0.09369  1.0000
  N   N7        1.0  0.84365  0.60937  0.85865  1.0000
  N   N8        1.0  0.15636  0.39063  0.14134  1.0000
  O   O1        1.0  0.93736  0.14737  0.60734  1.0000
  O   O2        1.0  0.06264  0.85263  0.39266  1.0000
  O   O3        1.0  0.05857  0.23316  0.40004  1.0000
  O   O4        1.0  0.94143  0.76684  0.59996  1.0000
  O   O5        1.0  0.53943  0.79617  0.47828  1.0000
  O   O6        1.0  0.46056  0.20383  0.52172  1.0000
  O   O7        1.0  0.71881  0.74858  0.29641  1.0000
  O   O8        1.0  0.28119  0.25142  0.70359  1.0000
  O   O9        1.0  0.66959  0.21702  0.07646  1.0000
  O   O10       1.0  0.33042  0.78298  0.92354  1.0000
  O   O11       1.0  0.55542  0.32779  0.22974  1.0000
  O   O12       1.0  0.44459  0.67221  0.77026  1.0000
  O   O13       1.0  0.85107  0.90324  0.80786  1.0000
  O   O14       1.0  0.14893  0.09676  0.19214  1.0000
  O   O15       1.0  0.84840  0.89108  0.00485  1.0000
  O   O16       1.0  0.15160  0.10892  0.99515  1.0000
  O   O17       1.0  0.51571  0.11260  0.82992  1.0000
  O   O18       1.0  0.48429  0.88740  0.17008  1.0000
  O   O19       1.0  0.22623  0.95643  0.60664  1.0000
  O   O20       1.0  0.77376  0.04357  0.39336  1.0000
