data_image0
_chemical_formula_structural       Ca4H16C20N8O20
_chemical_formula_sum              "Ca4 H16 C20 N8 O20"
_cell_length_a       6.63081
_cell_length_b       8.7844
_cell_length_c       12.7196
_cell_angle_alpha    89.9997
_cell_angle_beta     89.9996
_cell_angle_gamma    105.466

_space_group_name_H-M_alt    "P 1"
_space_group_IT_number       1

loop_
  _space_group_symop_operation_xyz
  'x, y, z'

loop_
  _atom_site_type_symbol
  _atom_site_label
  _atom_site_symmetry_multiplicity
  _atom_site_fract_x
  _atom_site_fract_y
  _atom_site_fract_z
  _atom_site_occupancy
  Ca  Ca1       1.0  0.73993  0.89363  0.33061  1.0000
  Ca  Ca2       1.0  0.73993  0.39363  0.16939  1.0000
  Ca  Ca3       1.0  0.26007  0.10637  0.66939  1.0000
  Ca  Ca4       1.0  0.26007  0.60637  0.83062  1.0000
  H   H1        1.0  0.73579  0.20921  0.42130  1.0000
  H   H2        1.0  0.73578  0.70920  0.07870  1.0000
  H   H3        1.0  0.26422  0.79079  0.57870  1.0000
  H   H4        1.0  0.26422  0.29079  0.92130  1.0000
  H   H5        1.0  0.71168  0.10650  0.52468  1.0000
  H   H6        1.0  0.71169  0.60649  0.97532  1.0000
  H   H7        1.0  0.28832  0.89351  0.47532  1.0000
  H   H8        1.0  0.28831  0.39350  0.02468  1.0000
  H   H9        1.0  0.77101  0.86950  0.63091  1.0000
  H   H10       1.0  0.77101  0.36950  0.86908  1.0000
  H   H11       1.0  0.22898  0.13050  0.36909  1.0000
  H   H12       1.0  0.22899  0.63050  0.13092  1.0000
  H   H13       1.0  0.77521  0.39215  0.59306  1.0000
  H   H14       1.0  0.77519  0.89215  0.90694  1.0000
  H   H15       1.0  0.22479  0.60785  0.40694  1.0000
  H   H16       1.0  0.22479  0.10785  0.09306  1.0000
  C   C1        1.0  0.74565  0.52376  0.37356  1.0000
  C   C2        1.0  0.74565  0.02376  0.12643  1.0000
  C   C3        1.0  0.25436  0.47624  0.62644  1.0000
  C   C4        1.0  0.25435  0.97624  0.87357  1.0000
  C   C5        1.0  0.75568  0.58586  0.48164  1.0000
  C   C6        1.0  0.75567  0.08586  0.01835  1.0000
  C   C7        1.0  0.24433  0.41414  0.51836  1.0000
  C   C8        1.0  0.24432  0.91414  0.98165  1.0000
  C   C9        1.0  0.76989  0.51233  0.57836  1.0000
  C   C10       1.0  0.76988  0.01233  0.92164  1.0000
  C   C11       1.0  0.23011  0.48767  0.42164  1.0000
  C   C12       1.0  0.23011  0.98767  0.07836  1.0000
  C   C13       1.0  0.76516  0.62637  0.65347  1.0000
  C   C14       1.0  0.76514  0.12636  0.84652  1.0000
  C   C15       1.0  0.23484  0.37363  0.34653  1.0000
  C   C16       1.0  0.23485  0.87364  0.15348  1.0000
  C   C17       1.0  0.76253  0.61336  0.77012  1.0000
  C   C18       1.0  0.76253  0.11336  0.72988  1.0000
  C   C19       1.0  0.23747  0.38663  0.22989  1.0000
  C   C20       1.0  0.23746  0.88664  0.27012  1.0000
  N   N1        1.0  0.74730  0.73666  0.49619  1.0000
  N   N2        1.0  0.74730  0.23665  0.00381  1.0000
  N   N3        1.0  0.25270  0.26334  0.50381  1.0000
  N   N4        1.0  0.25270  0.76335  0.99619  1.0000
  N   N5        1.0  0.74854  0.75684  0.60009  1.0000
  N   N6        1.0  0.74854  0.25684  0.89991  1.0000
  N   N7        1.0  0.25146  0.24316  0.39991  1.0000
  N   N8        1.0  0.25146  0.74316  0.10009  1.0000
  O   O1        1.0  0.74628  0.61935  0.29711  1.0000
  O   O2        1.0  0.74628  0.11934  0.20289  1.0000
  O   O3        1.0  0.25372  0.38066  0.70290  1.0000
  O   O4        1.0  0.25372  0.88066  0.79711  1.0000
  O   O5        1.0  0.73594  0.37895  0.35812  1.0000
  O   O6        1.0  0.73594  0.87894  0.14188  1.0000
  O   O7        1.0  0.26406  0.62105  0.64188  1.0000
  O   O8        1.0  0.26406  0.12106  0.85812  1.0000
  O   O9        1.0  0.63124  0.66408  0.82256  1.0000
  O   O10       1.0  0.63124  0.16408  0.67743  1.0000
  O   O11       1.0  0.36876  0.33592  0.17744  1.0000
  O   O12       1.0  0.36876  0.83592  0.32257  1.0000
  O   O13       1.0  0.89076  0.54510  0.81147  1.0000
  O   O14       1.0  0.89076  0.04510  0.68852  1.0000
  O   O15       1.0  0.10924  0.45490  0.18853  1.0000
  O   O16       1.0  0.10924  0.95490  0.31148  1.0000
  O   O17       1.0  0.73487  0.10269  0.44871  1.0000
  O   O18       1.0  0.73487  0.60269  0.05129  1.0000
  O   O19       1.0  0.26513  0.89731  0.55129  1.0000
  O   O20       1.0  0.26513  0.39731  0.94871  1.0000
