data_image0
_chemical_formula_structural       Zn2H20C32N6Cl2O4
_chemical_formula_sum              "Zn2 H20 C32 N6 Cl2 O4"
_cell_length_a       6.18705
_cell_length_b       8.52382
_cell_length_c       13.0971
_cell_angle_alpha    90.1861
_cell_angle_beta     90.1481
_cell_angle_gamma    102.546

_space_group_name_H-M_alt    "P 1"
_space_group_IT_number       1

loop_
  _space_group_symop_operation_xyz
  'x, y, z'

loop_
  _atom_site_type_symbol
  _atom_site_label
  _atom_site_symmetry_multiplicity
  _atom_site_fract_x
  _atom_site_fract_y
  _atom_site_fract_z
  _atom_site_occupancy
  Zn  Zn1       1.0  0.79908  0.74676  0.24747  1.0000
  Zn  Zn2       1.0  0.20209  0.25260  0.74814  1.0000
  H   H1        1.0  0.21920  0.63048  0.31851  1.0000
  H   H2        1.0  0.78204  0.36903  0.81905  1.0000
  H   H3        1.0  0.77331  0.37234  0.67850  1.0000
  H   H4        1.0  0.22639  0.62784  0.17758  1.0000
  H   H5        1.0  0.39543  0.59239  0.48162  1.0000
  H   H6        1.0  0.60474  0.40577  0.98197  1.0000
  H   H7        1.0  0.59794  0.40870  0.51464  1.0000
  H   H8        1.0  0.40190  0.59299  0.01359  1.0000
  H   H9        1.0  0.23925  0.67657  0.64523  1.0000
  H   H10       1.0  0.76119  0.32095  0.14538  1.0000
  H   H11       1.0  0.75732  0.32464  0.35194  1.0000
  H   H12       1.0  0.24154  0.67801  0.85145  1.0000
  H   H13       1.0  0.75415  0.84097  0.45966  1.0000
  H   H14       1.0  0.24688  0.15770  0.96010  1.0000
  H   H15       1.0  0.24034  0.16087  0.53929  1.0000
  H   H16       1.0  0.75800  0.83951  0.03925  1.0000
  H   H17       1.0  0.64529  0.93770  0.58655  1.0000
  H   H18       1.0  0.35593  0.06091  0.08828  1.0000
  H   H19       1.0  0.34986  0.06620  0.41441  1.0000
  H   H20       1.0  0.64857  0.93565  0.91276  1.0000
  C   C1        1.0  0.15404  0.67028  0.38868  1.0000
  C   C2        1.0  0.84683  0.32884  0.88916  1.0000
  C   C3        1.0  0.83912  0.33219  0.60861  1.0000
  C   C4        1.0  0.16051  0.66837  0.10784  1.0000
  C   C5        1.0  0.25286  0.64804  0.48151  1.0000
  C   C6        1.0  0.74755  0.35039  0.98183  1.0000
  C   C7        1.0  0.74095  0.35345  0.51552  1.0000
  C   C8        1.0  0.25879  0.64810  0.01477  1.0000
  C   C9        1.0  0.16750  0.69574  0.57147  1.0000
  C   C10       1.0  0.83305  0.30237  0.07165  1.0000
  C   C11       1.0  0.82809  0.30584  0.42598  1.0000
  C   C12       1.0  0.17106  0.69615  0.92554  1.0000
  C   C13       1.0  0.98290  0.76666  0.56630  1.0000
  C   C14       1.0  0.01811  0.23185  0.06657  1.0000
  C   C15       1.0  0.01295  0.23543  0.43179  1.0000
  C   C16       1.0  0.98564  0.76594  0.93147  1.0000
  C   C17       1.0  0.89550  0.78634  0.46999  1.0000
  C   C18       1.0  0.10552  0.21241  0.97035  1.0000
  C   C19       1.0  0.09907  0.21587  0.52848  1.0000
  C   C20       1.0  0.89959  0.78481  0.02818  1.0000
  C   C21       1.0  0.88202  0.81629  0.66037  1.0000
  C   C22       1.0  0.11851  0.18277  0.16101  1.0000
  C   C23       1.0  0.11469  0.18558  0.33824  1.0000
  C   C24       1.0  0.88413  0.81532  0.83766  1.0000
  C   C25       1.0  0.71120  0.90145  0.65773  1.0000
  C   C26       1.0  0.28951  0.09763  0.15921  1.0000
  C   C27       1.0  0.28495  0.10130  0.34276  1.0000
  C   C28       1.0  0.71378  0.89971  0.84136  1.0000
  C   C29       1.0  0.62680  0.94362  0.75007  1.0000
  C   C30       1.0  0.37310  0.05652  0.25202  1.0000
  C   C31       1.0  0.45318  0.04208  0.75507  1.0000
  C   C32       1.0  0.54725  0.95859  0.25952  1.0000
  N   N1        1.0  0.97816  0.73949  0.38248  1.0000
  N   N2        1.0  0.02272  0.25971  0.88298  1.0000
  N   N3        1.0  0.01537  0.26361  0.61544  1.0000
  N   N4        1.0  0.98394  0.73651  0.11484  1.0000
  N   N5        1.0  0.96544  0.77534  0.74865  1.0000
  N   N6        1.0  0.03419  0.22468  0.24884  1.0000
  Cl  Cl1       1.0  0.54603  0.51086  0.24986  1.0000
  Cl  Cl2       1.0  0.45416  0.48894  0.75139  1.0000
  O   O1        1.0  0.39123  0.07995  0.84191  1.0000
  O   O2        1.0  0.60648  0.92361  0.34713  1.0000
  O   O3        1.0  0.62464  0.90797  0.17784  1.0000
  O   O4        1.0  0.37846  0.09082  0.67251  1.0000
