data_image0
_chemical_formula_structural       Cd4H16C8N40O8
_chemical_formula_sum              "Cd4 H16 C8 N40 O8"
_cell_length_a       10.1134
_cell_length_b       10.1137
_cell_length_c       11.2552
_cell_angle_alpha    116.704
_cell_angle_beta     116.702
_cell_angle_gamma    89.9968

_space_group_name_H-M_alt    "P 1"
_space_group_IT_number       1

loop_
  _space_group_symop_operation_xyz
  'x, y, z'

loop_
  _atom_site_type_symbol
  _atom_site_label
  _atom_site_symmetry_multiplicity
  _atom_site_fract_x
  _atom_site_fract_y
  _atom_site_fract_z
  _atom_site_occupancy
  Cd  Cd1       1.0  0.38566  0.13572  0.77145  1.0000
  Cd  Cd2       1.0  0.13574  0.38577  0.27147  1.0000
  Cd  Cd3       1.0  0.61434  0.86428  0.22855  1.0000
  Cd  Cd4       1.0  0.86427  0.61423  0.72854  1.0000
  H   H1        1.0  0.09976  0.91008  0.56329  1.0000
  H   H2        1.0  0.46343  0.15280  0.56311  1.0000
  H   H3        1.0  0.91015  0.46351  0.06322  1.0000
  H   H4        1.0  0.15309  0.09980  0.06320  1.0000
  H   H5        1.0  0.90025  0.08992  0.43670  1.0000
  H   H6        1.0  0.53657  0.84720  0.43688  1.0000
  H   H7        1.0  0.08986  0.53649  0.93678  1.0000
  H   H8        1.0  0.84692  0.90020  0.93680  1.0000
  H   H9        1.0  0.11982  0.95033  0.72192  1.0000
  H   H10       1.0  0.60198  0.27126  0.72170  1.0000
  H   H11       1.0  0.95036  0.60213  0.22182  1.0000
  H   H12       1.0  0.27152  0.11984  0.22179  1.0000
  H   H13       1.0  0.88018  0.04967  0.27808  1.0000
  H   H14       1.0  0.39801  0.72873  0.27829  1.0000
  H   H15       1.0  0.04964  0.39787  0.77818  1.0000
  H   H16       1.0  0.72848  0.88016  0.77821  1.0000
  C   C1        1.0  0.11053  0.38531  0.55601  1.0000
  C   C2        1.0  0.44549  0.67072  0.55622  1.0000
  C   C3        1.0  0.38557  0.44546  0.05623  1.0000
  C   C4        1.0  0.67067  0.11066  0.05605  1.0000
  C   C5        1.0  0.88948  0.61470  0.44400  1.0000
  C   C6        1.0  0.55451  0.32930  0.44380  1.0000
  C   C7        1.0  0.61441  0.55454  0.94375  1.0000
  C   C8        1.0  0.32933  0.88934  0.94395  1.0000
  N   N1        1.0  0.26212  0.24661  0.51713  1.0000
  N   N2        1.0  0.25502  0.77053  0.51725  1.0000
  N   N3        1.0  0.24669  0.25503  0.01722  1.0000
  N   N4        1.0  0.77049  0.26218  0.01712  1.0000
  N   N5        1.0  0.73787  0.75339  0.48287  1.0000
  N   N6        1.0  0.74498  0.22947  0.48276  1.0000
  N   N7        1.0  0.75330  0.74496  0.98277  1.0000
  N   N8        1.0  0.22952  0.73782  0.98287  1.0000
  N   N9        1.0  0.24266  0.24666  0.62714  1.0000
  N   N10       1.0  0.38449  0.88049  0.62730  1.0000
  N   N11       1.0  0.24687  0.38452  0.12732  1.0000
  N   N12       1.0  0.88046  0.24271  0.12712  1.0000
  N   N13       1.0  0.75733  0.75333  0.37286  1.0000
  N   N14       1.0  0.61552  0.11951  0.37270  1.0000
  N   N15       1.0  0.75313  0.61547  0.87268  1.0000
  N   N16       1.0  0.11954  0.75729  0.87287  1.0000
  N   N17       1.0  0.14876  0.33220  0.65430  1.0000
  N   N18       1.0  0.50554  0.82211  0.65450  1.0000
  N   N19       1.0  0.33249  0.50555  0.15454  1.0000
  N   N20       1.0  0.82209  0.14882  0.15428  1.0000
  N   N21       1.0  0.85123  0.66780  0.34570  1.0000
  N   N22       1.0  0.49446  0.17790  0.34551  1.0000
  N   N23       1.0  0.66750  0.49444  0.84546  1.0000
  N   N24       1.0  0.17791  0.85118  0.84571  1.0000
  N   N25       1.0  0.17949  0.33308  0.47080  1.0000
  N   N26       1.0  0.29131  0.63774  0.47091  1.0000
  N   N27       1.0  0.33318  0.29129  0.97090  1.0000
  N   N28       1.0  0.63768  0.17956  0.97079  1.0000
  N   N29       1.0  0.82050  0.66692  0.52920  1.0000
  N   N30       1.0  0.70870  0.36227  0.52910  1.0000
  N   N31       1.0  0.66680  0.70870  0.02909  1.0000
  N   N32       1.0  0.36232  0.82045  0.02921  1.0000
  N   N33       1.0  0.01356  0.48117  0.55049  1.0000
  N   N34       1.0  0.53693  0.56931  0.55055  1.0000
  N   N35       1.0  0.48129  0.53690  0.05059  1.0000
  N   N36       1.0  0.56933  0.01360  0.05049  1.0000
  N   N37       1.0  0.98644  0.51883  0.44952  1.0000
  N   N38       1.0  0.46308  0.43069  0.44947  1.0000
  N   N39       1.0  0.51869  0.46310  0.94939  1.0000
  N   N40       1.0  0.43066  0.98639  0.94951  1.0000
  O   O1        1.0  0.11843  0.99698  0.66079  1.0000
  O   O2        1.0  0.54231  0.16346  0.66062  1.0000
  O   O3        1.0  0.99703  0.54243  0.16069  1.0000
  O   O4        1.0  0.16372  0.11844  0.16070  1.0000
  O   O5        1.0  0.88157  0.00302  0.33920  1.0000
  O   O6        1.0  0.45769  0.83654  0.33938  1.0000
  O   O7        1.0  0.00298  0.45757  0.83931  1.0000
  O   O8        1.0  0.83629  0.88156  0.83930  1.0000
