data_image0
_chemical_formula_structural       Zn2H24C40N6O8
_chemical_formula_sum              "Zn2 H24 C40 N6 O8"
_cell_length_a       7.58841
_cell_length_b       9.94787
_cell_length_c       11.2652
_cell_angle_alpha    81.8451
_cell_angle_beta     79.5927
_cell_angle_gamma    75.1296

_space_group_name_H-M_alt    "P 1"
_space_group_IT_number       1

loop_
  _space_group_symop_operation_xyz
  'x, y, z'

loop_
  _atom_site_type_symbol
  _atom_site_label
  _atom_site_symmetry_multiplicity
  _atom_site_fract_x
  _atom_site_fract_y
  _atom_site_fract_z
  _atom_site_occupancy
  Zn  Zn1       1.0  0.25139  0.58409  0.95008  1.0000
  Zn  Zn2       1.0  0.74861  0.41591  0.04992  1.0000
  H   H1        1.0  0.22467  0.44860  0.20516  1.0000
  H   H2        1.0  0.77533  0.55140  0.79484  1.0000
  H   H3        1.0  0.12582  0.52525  0.41255  1.0000
  H   H4        1.0  0.87419  0.47475  0.58745  1.0000
  H   H5        1.0  0.94417  0.94553  0.24384  1.0000
  H   H6        1.0  0.05583  0.05447  0.75616  1.0000
  H   H7        1.0  0.06401  0.85187  0.04317  1.0000
  H   H8        1.0  0.93599  0.14813  0.95684  1.0000
  H   H9        1.0  0.12853  0.63550  0.57074  1.0000
  H   H10       1.0  0.87147  0.36450  0.42927  1.0000
  H   H11       1.0  0.77361  0.97701  0.75650  1.0000
  H   H12       1.0  0.22639  0.02299  0.24350  1.0000
  H   H13       1.0  0.33562  0.38113  0.70881  1.0000
  H   H14       1.0  0.66437  0.61887  0.29119  1.0000
  H   H15       1.0  0.56166  0.15632  0.74243  1.0000
  H   H16       1.0  0.43834  0.84368  0.25757  1.0000
  H   H17       1.0  0.64019  0.12395  0.35765  1.0000
  H   H18       1.0  0.35982  0.87605  0.64235  1.0000
  H   H19       1.0  0.41716  0.35444  0.33840  1.0000
  H   H20       1.0  0.58285  0.64555  0.66159  1.0000
  H   H21       1.0  0.69159  0.08223  0.11950  1.0000
  H   H22       1.0  0.30841  0.91777  0.88050  1.0000
  H   H23       1.0  0.74502  0.82751  0.09613  1.0000
  H   H24       1.0  0.25498  0.17249  0.90386  1.0000
  C   C1        1.0  0.16286  0.55781  0.21831  1.0000
  C   C2        1.0  0.83715  0.44219  0.78169  1.0000
  C   C3        1.0  0.10486  0.60149  0.33368  1.0000
  C   C4        1.0  0.89514  0.39851  0.66632  1.0000
  C   C5        1.0  0.02235  0.74297  0.34582  1.0000
  C   C6        1.0  0.97766  0.25703  0.65418  1.0000
  C   C7        1.0  0.00604  0.83458  0.23959  1.0000
  C   C8        1.0  0.99396  0.16542  0.76042  1.0000
  C   C9        1.0  0.07246  0.78412  0.12780  1.0000
  C   C10       1.0  0.92754  0.21588  0.87221  1.0000
  C   C11       1.0  0.95298  0.79928  0.46458  1.0000
  C   C12       1.0  0.04702  0.20072  0.53542  1.0000
  C   C13       1.0  0.02184  0.73281  0.57104  1.0000
  C   C14       1.0  0.97817  0.26719  0.42896  1.0000
  C   C15       1.0  0.95885  0.80058  0.67651  1.0000
  C   C16       1.0  0.04115  0.19942  0.32349  1.0000
  C   C17       1.0  0.82238  0.92526  0.67385  1.0000
  C   C18       1.0  0.17762  0.07474  0.32615  1.0000
  C   C19       1.0  0.75861  0.98344  0.56403  1.0000
  C   C20       1.0  0.24139  0.01656  0.43597  1.0000
  C   C21       1.0  0.40662  0.32216  0.63209  1.0000
  C   C22       1.0  0.59338  0.67784  0.36791  1.0000
  C   C23       1.0  0.53382  0.19499  0.65078  1.0000
  C   C24       1.0  0.46618  0.80501  0.34922  1.0000
  C   C25       1.0  0.62109  0.11904  0.55197  1.0000
  C   C26       1.0  0.37891  0.88096  0.44803  1.0000
  C   C27       1.0  0.57617  0.17853  0.43746  1.0000
  C   C28       1.0  0.42383  0.82147  0.56254  1.0000
  C   C29       1.0  0.44998  0.30699  0.42770  1.0000
  C   C30       1.0  0.55002  0.69301  0.57230  1.0000
  C   C31       1.0  0.04744  0.75097  0.78921  1.0000
  C   C32       1.0  0.95256  0.24903  0.21080  1.0000
  C   C33       1.0  0.43721  0.29518  0.02251  1.0000
  C   C34       1.0  0.56279  0.70482  0.97749  1.0000
  C   C35       1.0  0.46927  0.14228  0.01265  1.0000
  C   C36       1.0  0.53073  0.85772  0.98735  1.0000
  C   C37       1.0  0.60784  0.04554  0.06784  1.0000
  C   C38       1.0  0.39215  0.95446  0.93216  1.0000
  C   C39       1.0  0.63803  0.90428  0.05460  1.0000
  C   C40       1.0  0.36196  0.09572  0.94540  1.0000
  N   N1        1.0  0.14837  0.64701  0.11644  1.0000
  N   N2        1.0  0.85163  0.35299  0.88356  1.0000
  N   N3        1.0  0.82729  0.92180  0.46149  1.0000
  N   N4        1.0  0.17271  0.07820  0.53851  1.0000
  N   N5        1.0  0.36320  0.37893  0.52256  1.0000
  N   N6        1.0  0.63680  0.62106  0.47743  1.0000
  O   O1        1.0  0.12979  0.61975  0.80432  1.0000
  O   O2        1.0  0.87020  0.38025  0.19569  1.0000
  O   O3        1.0  0.04150  0.83883  0.86007  1.0000
  O   O4        1.0  0.95851  0.16117  0.13993  1.0000
  O   O5        1.0  0.32061  0.37671  0.95996  1.0000
  O   O6        1.0  0.67939  0.62329  0.04003  1.0000
  O   O7        1.0  0.52412  0.33588  0.09230  1.0000
  O   O8        1.0  0.47587  0.66412  0.90770  1.0000
