data_image0
_chemical_formula_structural       Cu2H16C20N8O12
_chemical_formula_sum              "Cu2 H16 C20 N8 O12"
_cell_length_a       6.59145
_cell_length_b       9.75665
_cell_length_c       10.5226
_cell_angle_alpha    105.85
_cell_angle_beta     90
_cell_angle_gamma    89.9996

_space_group_name_H-M_alt    "P 1"
_space_group_IT_number       1

loop_
  _space_group_symop_operation_xyz
  'x, y, z'

loop_
  _atom_site_type_symbol
  _atom_site_label
  _atom_site_symmetry_multiplicity
  _atom_site_fract_x
  _atom_site_fract_y
  _atom_site_fract_z
  _atom_site_occupancy
  Cu  Cu1       1.0  0.00000  0.50000  0.50000  1.0000
  Cu  Cu2       1.0  0.50000  0.50000  1.00000  1.0000
  H   H1        1.0  0.67824  0.35798  0.60934  1.0000
  H   H2        1.0  0.17825  0.64202  0.89066  1.0000
  H   H3        1.0  0.32175  0.64202  0.39066  1.0000
  H   H4        1.0  0.82175  0.35798  0.10934  1.0000
  H   H5        1.0  0.88874  0.31563  0.65488  1.0000
  H   H6        1.0  0.38875  0.68437  0.84512  1.0000
  H   H7        1.0  0.11126  0.68437  0.34511  1.0000
  H   H8        1.0  0.61126  0.31563  0.15488  1.0000
  H   H9        1.0  0.32104  0.38255  0.56437  1.0000
  H   H10       1.0  0.82105  0.61745  0.93563  1.0000
  H   H11       1.0  0.67896  0.61745  0.43563  1.0000
  H   H12       1.0  0.17896  0.38255  0.06436  1.0000
  H   H13       1.0  0.26710  0.52053  0.68828  1.0000
  H   H14       1.0  0.76711  0.47947  0.81173  1.0000
  H   H15       1.0  0.73290  0.47947  0.31172  1.0000
  H   H16       1.0  0.23290  0.52053  0.18827  1.0000
  C   C1        1.0  0.99040  0.80908  0.67993  1.0000
  C   C2        1.0  0.49041  0.19092  0.82007  1.0000
  C   C3        1.0  0.00960  0.19092  0.32007  1.0000
  C   C4        1.0  0.50959  0.80908  0.17993  1.0000
  C   C5        1.0  0.00521  0.94959  0.75988  1.0000
  C   C6        1.0  0.50522  0.05041  0.74011  1.0000
  C   C7        1.0  0.99478  0.05041  0.24012  1.0000
  C   C8        1.0  0.49477  0.94958  0.25988  1.0000
  C   C9        1.0  0.00361  0.97810  0.89747  1.0000
  C   C10       1.0  0.50362  0.02190  0.60252  1.0000
  C   C11       1.0  0.99637  0.02191  0.10253  1.0000
  C   C12       1.0  0.49636  0.97810  0.39747  1.0000
  C   C13       1.0  0.99394  0.89163  0.99199  1.0000
  C   C14       1.0  0.49394  0.10837  0.50801  1.0000
  C   C15       1.0  0.00605  0.10837  0.00802  1.0000
  C   C16       1.0  0.50604  0.89162  0.49198  1.0000
  C   C17       1.0  0.01154  0.06098  0.69827  1.0000
  C   C18       1.0  0.51155  0.93902  0.80173  1.0000
  C   C19       1.0  0.98846  0.93902  0.30173  1.0000
  C   C20       1.0  0.48846  0.06097  0.19826  1.0000
  N   N1        1.0  0.97190  0.69193  0.61499  1.0000
  N   N2        1.0  0.47192  0.30807  0.88501  1.0000
  N   N3        1.0  0.02810  0.30807  0.38501  1.0000
  N   N4        1.0  0.52810  0.69193  0.11499  1.0000
  N   N5        1.0  0.01735  0.15485  0.64894  1.0000
  N   N6        1.0  0.51735  0.84515  0.85106  1.0000
  N   N7        1.0  0.98266  0.84515  0.35106  1.0000
  N   N8        1.0  0.48266  0.15485  0.14893  1.0000
  O   O1        1.0  0.80194  0.40007  0.65810  1.0000
  O   O2        1.0  0.30195  0.59993  0.84190  1.0000
  O   O3        1.0  0.19806  0.59993  0.34190  1.0000
  O   O4        1.0  0.69806  0.40007  0.15810  1.0000
  O   O5        1.0  0.25954  0.47870  0.58895  1.0000
  O   O6        1.0  0.75955  0.52130  0.91106  1.0000
  O   O7        1.0  0.74047  0.52130  0.41105  1.0000
  O   O8        1.0  0.24046  0.47870  0.08894  1.0000
  O   O9        1.0  0.98964  0.76169  0.98434  1.0000
  O   O10       1.0  0.48963  0.23832  0.51566  1.0000
  O   O11       1.0  0.01036  0.23832  0.01566  1.0000
  O   O12       1.0  0.51037  0.76169  0.48434  1.0000
