data_image0
_chemical_formula_structural       Cd2H14C16O12F2
_chemical_formula_sum              "Cd2 H14 C16 O12 F2"
_cell_length_a       6.89184
_cell_length_b       7.23033
_cell_length_c       10.8451
_cell_angle_alpha    103.397
_cell_angle_beta     93.6295
_cell_angle_gamma    115.544

_space_group_name_H-M_alt    "P 1"
_space_group_IT_number       1

loop_
  _space_group_symop_operation_xyz
  'x, y, z'

loop_
  _atom_site_type_symbol
  _atom_site_label
  _atom_site_symmetry_multiplicity
  _atom_site_fract_x
  _atom_site_fract_y
  _atom_site_fract_z
  _atom_site_occupancy
  Cd  Cd1       1.0  0.22956  0.69228  0.43953  1.0000
  Cd  Cd2       1.0  0.77044  0.30772  0.56047  1.0000
  H   H1        1.0  0.79320  0.01996  0.14979  1.0000
  H   H2        1.0  0.20680  0.98004  0.85022  1.0000
  H   H3        1.0  0.82108  0.82601  0.93541  1.0000
  H   H4        1.0  0.17892  0.17400  0.06459  1.0000
  H   H5        1.0  0.78423  0.45672  0.89842  1.0000
  H   H6        1.0  0.21578  0.54329  0.10157  1.0000
  H   H7        1.0  0.02979  0.25576  0.32828  1.0000
  H   H8        1.0  0.97021  0.74424  0.67172  1.0000
  H   H9        1.0  0.27224  0.33842  0.29851  1.0000
  H   H10       1.0  0.72775  0.66158  0.70149  1.0000
  H   H11       1.0  0.10630  0.85224  0.24693  1.0000
  H   H12       1.0  0.89370  0.14775  0.75306  1.0000
  H   H13       1.0  0.35171  0.02184  0.30191  1.0000
  H   H14       1.0  0.64829  0.97816  0.69809  1.0000
  C   C1        1.0  0.73242  0.45141  0.09133  1.0000
  C   C2        1.0  0.26759  0.54860  0.90867  1.0000
  C   C3        1.0  0.71553  0.55414  0.21311  1.0000
  C   C4        1.0  0.28447  0.44586  0.78689  1.0000
  C   C5        1.0  0.74196  0.76440  0.23419  1.0000
  C   C6        1.0  0.25804  0.23560  0.76581  1.0000
  C   C7        1.0  0.78075  0.86086  0.13384  1.0000
  C   C8        1.0  0.21925  0.13914  0.86616  1.0000
  C   C9        1.0  0.79544  0.75178  0.01349  1.0000
  C   C10       1.0  0.20456  0.24822  0.98651  1.0000
  C   C11       1.0  0.77332  0.54539  0.99145  1.0000
  C   C12       1.0  0.22668  0.45462  0.00855  1.0000
  C   C13       1.0  0.67337  0.43871  0.31533  1.0000
  C   C14       1.0  0.32663  0.56129  0.68467  1.0000
  C   C15       1.0  0.71324  0.88204  0.35966  1.0000
  C   C16       1.0  0.28676  0.11796  0.64034  1.0000
  O   O1        1.0  0.48721  0.28256  0.30164  1.0000
  O   O2        1.0  0.51279  0.71743  0.69836  1.0000
  O   O3        1.0  0.83255  0.50234  0.40768  1.0000
  O   O4        1.0  0.16744  0.49765  0.59231  1.0000
  O   O5        1.0  0.58609  0.77583  0.42429  1.0000
  O   O6        1.0  0.41391  0.22416  0.57571  1.0000
  O   O7        1.0  0.81915  0.08693  0.39204  1.0000
  O   O8        1.0  0.18085  0.91306  0.60796  1.0000
  O   O9        1.0  0.14261  0.36607  0.29606  1.0000
  O   O10       1.0  0.85739  0.63393  0.70394  1.0000
  O   O11       1.0  0.24810  0.86625  0.28137  1.0000
  O   O12       1.0  0.75190  0.13374  0.71863  1.0000
  F   F1        1.0  0.70865  0.24863  0.06916  1.0000
  F   F2        1.0  0.29136  0.75137  0.93083  1.0000
