data_image0
_chemical_formula_structural       Ca2H28C32O16
_chemical_formula_sum              "Ca2 H28 C32 O16"
_cell_length_a       7.81344
_cell_length_b       10.8113
_cell_length_c       10.8113
_cell_angle_alpha    63.4956
_cell_angle_beta     85.6843
_cell_angle_gamma    85.6838

_space_group_name_H-M_alt    "P 1"
_space_group_IT_number       1

loop_
  _space_group_symop_operation_xyz
  'x, y, z'

loop_
  _atom_site_type_symbol
  _atom_site_label
  _atom_site_symmetry_multiplicity
  _atom_site_fract_x
  _atom_site_fract_y
  _atom_site_fract_z
  _atom_site_occupancy
  Ca  Ca1       1.0  0.75000  0.94623  0.05377  1.0000
  Ca  Ca2       1.0  0.25000  0.05377  0.94623  1.0000
  H   H1        1.0  0.47309  0.91920  0.25525  1.0000
  H   H2        1.0  0.02690  0.74475  0.08079  1.0000
  H   H3        1.0  0.52691  0.08080  0.74475  1.0000
  H   H4        1.0  0.97310  0.25525  0.91920  1.0000
  H   H5        1.0  0.63323  0.91654  0.33892  1.0000
  H   H6        1.0  0.86677  0.66108  0.08346  1.0000
  H   H7        1.0  0.36677  0.08346  0.66108  1.0000
  H   H8        1.0  0.13323  0.33892  0.91653  1.0000
  H   H9        1.0  0.73735  0.34805  0.08130  1.0000
  H   H10       1.0  0.76265  0.91870  0.65196  1.0000
  H   H11       1.0  0.26267  0.65196  0.91869  1.0000
  H   H12       1.0  0.23735  0.08129  0.34805  1.0000
  H   H13       1.0  0.64602  0.70945  0.81686  1.0000
  H   H14       1.0  0.85398  0.18313  0.29056  1.0000
  H   H15       1.0  0.35398  0.29055  0.18314  1.0000
  H   H16       1.0  0.14602  0.81686  0.70945  1.0000
  H   H17       1.0  0.48649  0.77863  0.60251  1.0000
  H   H18       1.0  0.01351  0.39749  0.22137  1.0000
  H   H19       1.0  0.51351  0.22137  0.39749  1.0000
  H   H20       1.0  0.98648  0.60251  0.77863  1.0000
  H   H21       1.0  0.38141  0.59623  0.54904  1.0000
  H   H22       1.0  0.11858  0.45097  0.40377  1.0000
  H   H23       1.0  0.61859  0.40378  0.45096  1.0000
  H   H24       1.0  0.88140  0.54903  0.59623  1.0000
  H   H25       1.0  0.43896  0.34654  0.70791  1.0000
  H   H26       1.0  0.06103  0.29210  0.65345  1.0000
  H   H27       1.0  0.56104  0.65346  0.29209  1.0000
  H   H28       1.0  0.93896  0.70790  0.34655  1.0000
  C   C1        1.0  0.73429  0.45733  0.00240  1.0000
  C   C2        1.0  0.76570  0.99761  0.54268  1.0000
  C   C3        1.0  0.26571  0.54267  0.99760  1.0000
  C   C4        1.0  0.23429  0.00239  0.45732  1.0000
  C   C5        1.0  0.64080  0.49169  0.87695  1.0000
  C   C6        1.0  0.85919  0.12305  0.50831  1.0000
  C   C7        1.0  0.35920  0.50831  0.12304  1.0000
  C   C8        1.0  0.14081  0.87695  0.49169  1.0000
  C   C9        1.0  0.60304  0.63184  0.78898  1.0000
  C   C10       1.0  0.89696  0.21102  0.36816  1.0000
  C   C11       1.0  0.39696  0.36816  0.21102  1.0000
  C   C12       1.0  0.10304  0.78897  0.63184  1.0000
  C   C13       1.0  0.51203  0.66964  0.67086  1.0000
  C   C14       1.0  0.98797  0.32913  0.33037  1.0000
  C   C15       1.0  0.48797  0.33037  0.32913  1.0000
  C   C16       1.0  0.01203  0.67086  0.66963  1.0000
  C   C17       1.0  0.45383  0.56689  0.64120  1.0000
  C   C18       1.0  0.04618  0.35881  0.43310  1.0000
  C   C19       1.0  0.54618  0.43311  0.35880  1.0000
  C   C20       1.0  0.95382  0.64119  0.56690  1.0000
  C   C21       1.0  0.48570  0.42719  0.72959  1.0000
  C   C22       1.0  0.01430  0.27042  0.57281  1.0000
  C   C23       1.0  0.51430  0.57281  0.27041  1.0000
  C   C24       1.0  0.98570  0.72958  0.42719  1.0000
  C   C25       1.0  0.58085  0.38832  0.84709  1.0000
  C   C26       1.0  0.91915  0.15292  0.61168  1.0000
  C   C27       1.0  0.41916  0.61168  0.15290  1.0000
  C   C28       1.0  0.08085  0.84708  0.38833  1.0000
  C   C29       1.0  0.61938  0.23702  0.93563  1.0000
  C   C30       1.0  0.88063  0.06438  0.76299  1.0000
  C   C31       1.0  0.38062  0.76298  0.06437  1.0000
  C   C32       1.0  0.11937  0.93561  0.23702  1.0000
  O   O1        1.0  0.80616  0.54465  0.02151  1.0000
  O   O2        1.0  0.69384  0.97848  0.45536  1.0000
  O   O3        1.0  0.19384  0.45536  0.97848  1.0000
  O   O4        1.0  0.30616  0.02151  0.54465  1.0000
  O   O5        1.0  0.59660  0.88908  0.27017  1.0000
  O   O6        1.0  0.90339  0.72984  0.11091  1.0000
  O   O7        1.0  0.40340  0.11092  0.72983  1.0000
  O   O8        1.0  0.09661  0.27016  0.88908  1.0000
  O   O9        1.0  0.77112  0.19668  0.97819  1.0000
  O   O10       1.0  0.72888  0.02182  0.80332  1.0000
  O   O11       1.0  0.22888  0.80332  0.02181  1.0000
  O   O12       1.0  0.27112  0.97818  0.19668  1.0000
  O   O13       1.0  0.50151  0.15315  0.96314  1.0000
  O   O14       1.0  0.99849  0.03687  0.84684  1.0000
  O   O15       1.0  0.49849  0.84685  0.03686  1.0000
  O   O16       1.0  0.00151  0.96312  0.15317  1.0000
