data_image0
_chemical_formula_structural       Co2P4H24C26O14
_chemical_formula_sum              "Co2 P4 H24 C26 O14"
_cell_length_a       5.89275
_cell_length_b       7.67338
_cell_length_c       14.6956
_cell_angle_alpha    89.9988
_cell_angle_beta     90.0099
_cell_angle_gamma    89.9937

_space_group_name_H-M_alt    "P 1"
_space_group_IT_number       1

loop_
  _space_group_symop_operation_xyz
  'x, y, z'

loop_
  _atom_site_type_symbol
  _atom_site_label
  _atom_site_symmetry_multiplicity
  _atom_site_fract_x
  _atom_site_fract_y
  _atom_site_fract_z
  _atom_site_occupancy
  Co  Co1       1.0  0.02386  0.41618  0.99999  1.0000
  Co  Co2       1.0  0.97615  0.91617  0.00001  1.0000
  P   P1        1.0  0.69674  0.64754  0.85590  1.0000
  P   P2        1.0  0.30321  0.14756  0.14411  1.0000
  P   P3        1.0  0.30296  0.14761  0.85591  1.0000
  P   P4        1.0  0.69695  0.64757  0.14409  1.0000
  H   H1        1.0  0.37646  0.48308  0.87215  1.0000
  H   H2        1.0  0.62345  0.98302  0.12780  1.0000
  H   H3        1.0  0.62320  0.98303  0.87225  1.0000
  H   H4        1.0  0.37670  0.48304  0.12779  1.0000
  H   H5        1.0  0.73014  0.18546  0.94577  1.0000
  H   H6        1.0  0.26982  0.68536  0.05423  1.0000
  H   H7        1.0  0.26971  0.68538  0.94570  1.0000
  H   H8        1.0  0.73026  0.18545  0.05429  1.0000
  H   H9        1.0  0.43505  0.54528  0.69532  1.0000
  H   H10       1.0  0.56495  0.04519  0.30465  1.0000
  H   H11       1.0  0.56479  0.04524  0.69545  1.0000
  H   H12       1.0  0.43516  0.54527  0.30459  1.0000
  H   H13       1.0  0.15429  0.83055  0.59182  1.0000
  H   H14       1.0  0.84585  0.33067  0.40821  1.0000
  H   H15       1.0  0.84579  0.33073  0.59169  1.0000
  H   H16       1.0  0.15430  0.83059  0.40826  1.0000
  H   H17       1.0  0.07204  0.80003  0.75606  1.0000
  H   H18       1.0  0.92798  0.30012  0.24396  1.0000
  H   H19       1.0  0.92780  0.30018  0.75595  1.0000
  H   H20       1.0  0.07215  0.80007  0.24401  1.0000
  H   H21       1.0  0.32653  0.60747  0.49994  1.0000
  H   H22       1.0  0.67354  0.10750  0.50007  1.0000
  H   H23       1.0  0.48666  0.41669  0.49995  1.0000
  H   H24       1.0  0.51354  0.91670  0.50007  1.0000
  C   C1        1.0  0.75029  0.66974  0.73579  1.0000
  C   C2        1.0  0.24968  0.16973  0.26422  1.0000
  C   C3        1.0  0.24951  0.16981  0.73579  1.0000
  C   C4        1.0  0.75043  0.66977  0.26420  1.0000
  C   C5        1.0  0.59258  0.60537  0.67233  1.0000
  C   C6        1.0  0.40744  0.10532  0.32766  1.0000
  C   C7        1.0  0.40731  0.10539  0.67240  1.0000
  C   C8        1.0  0.59268  0.60537  0.32762  1.0000
  C   C9        1.0  0.63985  0.62116  0.58013  1.0000
  C   C10       1.0  0.36025  0.12114  0.41986  1.0000
  C   C11       1.0  0.36019  0.12118  0.58019  1.0000
  C   C12       1.0  0.63989  0.62118  0.41982  1.0000
  C   C13       1.0  0.84240  0.70189  0.54994  1.0000
  C   C14       1.0  0.15770  0.20190  0.45006  1.0000
  C   C15       1.0  0.15769  0.20194  0.54992  1.0000
  C   C16       1.0  0.84240  0.70190  0.45007  1.0000
  C   C17       1.0  0.99883  0.76589  0.61333  1.0000
  C   C18       1.0  0.00127  0.26598  0.38669  1.0000
  C   C19       1.0  0.00119  0.26604  0.61324  1.0000
  C   C20       1.0  0.99888  0.76594  0.38672  1.0000
  C   C21       1.0  0.95246  0.74907  0.70601  1.0000
  C   C22       1.0  0.04757  0.24916  0.29401  1.0000
  C   C23       1.0  0.04741  0.24922  0.70594  1.0000
  C   C24       1.0  0.95257  0.74910  0.29403  1.0000
  C   C25       1.0  0.50259  0.55966  0.49996  1.0000
  C   C26       1.0  0.49750  0.05966  0.50005  1.0000
  O   O1        1.0  0.43068  0.61173  0.86120  1.0000
  O   O2        1.0  0.56924  0.11167  0.13877  1.0000
  O   O3        1.0  0.56898  0.11172  0.86132  1.0000
  O   O4        1.0  0.43093  0.61172  0.13870  1.0000
  O   O5        1.0  0.82813  0.49517  0.89427  1.0000
  O   O6        1.0  0.17172  0.99522  0.10574  1.0000
  O   O7        1.0  0.17144  0.99526  0.89424  1.0000
  O   O8        1.0  0.82841  0.49517  0.10577  1.0000
  O   O9        1.0  0.73950  0.82476  0.90164  1.0000
  O   O10       1.0  0.26046  0.32479  0.09836  1.0000
  O   O11       1.0  0.26020  0.32485  0.90163  1.0000
  O   O12       1.0  0.73975  0.82479  0.09835  1.0000
  O   O13       1.0  0.83292  0.18020  0.00002  1.0000
  O   O14       1.0  0.16705  0.68009  0.99998  1.0000
