data_image0
_chemical_formula_structural       Cu2H28C28N4O12
_chemical_formula_sum              "Cu2 H28 C28 N4 O12"
_cell_length_a       8.54946
_cell_length_b       9.04638
_cell_length_c       9.93192
_cell_angle_alpha    99.4157
_cell_angle_beta     95.6675
_cell_angle_gamma    94.1342

_space_group_name_H-M_alt    "P 1"
_space_group_IT_number       1

loop_
  _space_group_symop_operation_xyz
  'x, y, z'

loop_
  _atom_site_type_symbol
  _atom_site_label
  _atom_site_symmetry_multiplicity
  _atom_site_fract_x
  _atom_site_fract_y
  _atom_site_fract_z
  _atom_site_occupancy
  Cu  Cu1       1.0  0.78625  0.15826  0.14502  1.0000
  Cu  Cu2       1.0  0.21375  0.84174  0.85499  1.0000
  H   H1        1.0  0.57306  0.01261  0.69661  1.0000
  H   H2        1.0  0.42694  0.98738  0.30339  1.0000
  H   H3        1.0  0.46323  0.80116  0.43845  1.0000
  H   H4        1.0  0.53677  0.19884  0.56155  1.0000
  H   H5        1.0  0.70442  0.06579  0.39584  1.0000
  H   H6        1.0  0.29558  0.93421  0.60416  1.0000
  H   H7        1.0  0.07810  0.25104  0.71512  1.0000
  H   H8        1.0  0.92190  0.74897  0.28488  1.0000
  H   H9        1.0  0.21243  0.36670  0.53880  1.0000
  H   H10       1.0  0.78757  0.63330  0.46120  1.0000
  H   H11       1.0  0.07826  0.32916  0.29679  1.0000
  H   H12       1.0  0.92174  0.67084  0.70321  1.0000
  H   H13       1.0  0.84317  0.97402  0.68486  1.0000
  H   H14       1.0  0.15684  0.02597  0.31513  1.0000
  H   H15       1.0  0.81211  0.15382  0.77287  1.0000
  H   H16       1.0  0.18789  0.84617  0.22713  1.0000
  H   H17       1.0  0.56611  0.32566  0.31133  1.0000
  H   H18       1.0  0.43389  0.67434  0.68867  1.0000
  H   H19       1.0  0.55190  0.75277  0.17319  1.0000
  H   H20       1.0  0.44811  0.24723  0.82682  1.0000
  H   H21       1.0  0.75395  0.67150  0.01527  1.0000
  H   H22       1.0  0.24605  0.32850  0.98473  1.0000
  H   H23       1.0  0.84766  0.41380  0.01153  1.0000
  H   H24       1.0  0.15233  0.58619  0.98846  1.0000
  H   H25       1.0  0.31732  0.62410  0.29878  1.0000
  H   H26       1.0  0.68268  0.37590  0.70123  1.0000
  H   H27       1.0  0.38553  0.48870  0.39741  1.0000
  H   H28       1.0  0.61447  0.51130  0.60259  1.0000
  C   C1        1.0  0.53802  0.01802  0.93591  1.0000
  C   C2        1.0  0.46198  0.98197  0.06409  1.0000
  C   C3        1.0  0.04184  0.07116  0.97856  1.0000
  C   C4        1.0  0.95816  0.92885  0.02144  1.0000
  C   C5        1.0  0.81570  0.13284  0.43262  1.0000
  C   C6        1.0  0.18430  0.86717  0.56738  1.0000
  C   C7        1.0  0.87850  0.15147  0.57007  1.0000
  C   C8        1.0  0.12149  0.84853  0.42993  1.0000
  C   C9        1.0  0.02359  0.23698  0.60922  1.0000
  C   C10       1.0  0.97641  0.76303  0.39078  1.0000
  C   C11       1.0  0.09810  0.30216  0.51176  1.0000
  C   C12       1.0  0.90189  0.69784  0.48824  1.0000
  C   C13       1.0  0.02584  0.28089  0.37735  1.0000
  C   C14       1.0  0.97416  0.71912  0.62265  1.0000
  C   C15       1.0  0.79283  0.08047  0.67156  1.0000
  C   C16       1.0  0.20718  0.91952  0.32844  1.0000
  C   C17       1.0  0.60172  0.40450  0.24528  1.0000
  C   C18       1.0  0.39829  0.59551  0.75472  1.0000
  C   C19       1.0  0.53989  0.54381  0.25243  1.0000
  C   C20       1.0  0.46011  0.45620  0.74757  1.0000
  C   C21       1.0  0.59479  0.64168  0.16827  1.0000
  C   C22       1.0  0.40521  0.35833  0.83173  1.0000
  C   C23       1.0  0.70581  0.59707  0.07977  1.0000
  C   C24       1.0  0.29419  0.40293  0.92023  1.0000
  C   C25       1.0  0.76040  0.45546  0.07794  1.0000
  C   C26       1.0  0.23960  0.54454  0.92205  1.0000
  C   C27       1.0  0.42283  0.58763  0.35320  1.0000
  C   C28       1.0  0.57718  0.41237  0.64680  1.0000
  N   N1        1.0  0.88767  0.19631  0.33908  1.0000
  N   N2        1.0  0.11232  0.80369  0.66092  1.0000
  N   N3        1.0  0.70933  0.36202  0.15986  1.0000
  N   N4        1.0  0.29067  0.63798  0.84014  1.0000
  O   O1        1.0  0.66405  0.10571  0.95531  1.0000
  O   O2        1.0  0.33595  0.89427  0.04469  1.0000
  O   O3        1.0  0.46924  0.95961  0.81868  1.0000
  O   O4        1.0  0.53076  0.04037  0.18132  1.0000
  O   O5        1.0  0.00902  0.19911  0.03267  1.0000
  O   O6        1.0  0.99098  0.80090  0.96733  1.0000
  O   O7        1.0  0.13938  0.04849  0.88901  1.0000
  O   O8        1.0  0.86063  0.95152  0.11100  1.0000
  O   O9        1.0  0.62881  0.05222  0.62378  1.0000
  O   O10       1.0  0.37119  0.94776  0.37622  1.0000
  O   O11       1.0  0.49072  0.70327  0.46343  1.0000
  O   O12       1.0  0.50929  0.29673  0.53657  1.0000
