data_image0
_chemical_formula_structural       Cd2H30C40N6O10
_chemical_formula_sum              "Cd2 H30 C40 N6 O10"
_cell_length_a       10.0892
_cell_length_b       10.457
_cell_length_c       10.507
_cell_angle_alpha    64.9436
_cell_angle_beta     63.6481
_cell_angle_gamma    71.3639

_space_group_name_H-M_alt    "P 1"
_space_group_IT_number       1

loop_
  _space_group_symop_operation_xyz
  'x, y, z'

loop_
  _atom_site_type_symbol
  _atom_site_label
  _atom_site_symmetry_multiplicity
  _atom_site_fract_x
  _atom_site_fract_y
  _atom_site_fract_z
  _atom_site_occupancy
  Cd  Cd1       1.0  0.26255  0.39942  0.06012  1.0000
  Cd  Cd2       1.0  0.73745  0.60058  0.93988  1.0000
  H   H1        1.0  0.85526  0.84883  0.09460  1.0000
  H   H2        1.0  0.14474  0.15118  0.90540  1.0000
  H   H3        1.0  0.00913  0.65283  0.11802  1.0000
  H   H4        1.0  0.99088  0.34716  0.88198  1.0000
  H   H5        1.0  0.45695  0.24583  0.73464  1.0000
  H   H6        1.0  0.54305  0.75417  0.26536  1.0000
  H   H7        1.0  0.40049  0.23261  0.32141  1.0000
  H   H8        1.0  0.59950  0.76739  0.67859  1.0000
  H   H9        1.0  0.56309  0.24215  0.87906  1.0000
  H   H10       1.0  0.43691  0.75785  0.12094  1.0000
  H   H11       1.0  0.48780  0.41311  0.47428  1.0000
  H   H12       1.0  0.51220  0.58689  0.52572  1.0000
  H   H13       1.0  0.75771  0.02838  0.92706  1.0000
  H   H14       1.0  0.24229  0.97162  0.07294  1.0000
  H   H15       1.0  0.88932  0.13252  0.17765  1.0000
  H   H16       1.0  0.11068  0.86748  0.82235  1.0000
  H   H17       1.0  0.98044  0.01507  0.30565  1.0000
  H   H18       1.0  0.01955  0.98492  0.69435  1.0000
  H   H19       1.0  0.21986  0.58200  0.49006  1.0000
  H   H20       1.0  0.78014  0.41800  0.50994  1.0000
  H   H21       1.0  0.34996  0.46577  0.29117  1.0000
  H   H22       1.0  0.65004  0.53423  0.70883  1.0000
  H   H23       1.0  0.97264  0.74013  0.50180  1.0000
  H   H24       1.0  0.02736  0.25987  0.49819  1.0000
  H   H25       1.0  0.59299  0.02859  0.38323  1.0000
  H   H26       1.0  0.40701  0.97142  0.61678  1.0000
  H   H27       1.0  0.65003  0.02503  0.77372  1.0000
  H   H28       1.0  0.34997  0.97497  0.22628  1.0000
  H   H29       1.0  0.86171  0.97477  0.55515  1.0000
  H   H30       1.0  0.13829  0.02523  0.44486  1.0000
  C   C1        1.0  0.05076  0.64161  0.20280  1.0000
  C   C2        1.0  0.94924  0.35839  0.79720  1.0000
  C   C3        1.0  0.55390  0.22357  0.63989  1.0000
  C   C4        1.0  0.44611  0.77643  0.36011  1.0000
  C   C5        1.0  0.48368  0.18821  0.23435  1.0000
  C   C6        1.0  0.51632  0.81179  0.76566  1.0000
  C   C7        1.0  0.57249  0.19029  0.98974  1.0000
  C   C8        1.0  0.42750  0.80972  0.01027  1.0000
  C   C9        1.0  0.69433  0.29367  0.36967  1.0000
  C   C10       1.0  0.30567  0.70633  0.63033  1.0000
  C   C11       1.0  0.97335  0.71396  0.30735  1.0000
  C   C12       1.0  0.02665  0.28604  0.69265  1.0000
  C   C13       1.0  0.57041  0.31751  0.49460  1.0000
  C   C14       1.0  0.42959  0.68249  0.50540  1.0000
  C   C15       1.0  0.68140  0.07272  0.01618  1.0000
  C   C16       1.0  0.31860  0.92728  0.98382  1.0000
  C   C17       1.0  0.92960  0.12698  0.26143  1.0000
  C   C18       1.0  0.07040  0.87301  0.73857  1.0000
  C   C19       1.0  0.16906  0.59965  0.41054  1.0000
  C   C20       1.0  0.83094  0.40035  0.58946  1.0000
  C   C21       1.0  0.24044  0.53309  0.30147  1.0000
  C   C22       1.0  0.75956  0.46691  0.69853  1.0000
  C   C23       1.0  0.03283  0.68936  0.41535  1.0000
  C   C24       1.0  0.96717  0.31064  0.58465  1.0000
  C   C25       1.0  0.82913  0.81642  0.31542  1.0000
  C   C26       1.0  0.17087  0.18358  0.68458  1.0000
  C   C27       1.0  0.80179  0.16824  0.39024  1.0000
  C   C28       1.0  0.19821  0.83176  0.60976  1.0000
  C   C29       1.0  0.59052  0.07178  0.27057  1.0000
  C   C30       1.0  0.40948  0.92822  0.72944  1.0000
  C   C31       1.0  0.66172  0.10157  0.66104  1.0000
  C   C32       1.0  0.33828  0.89842  0.33896  1.0000
  C   C33       1.0  0.05595  0.21499  0.17847  1.0000
  C   C34       1.0  0.94405  0.78501  0.82153  1.0000
  C   C35       1.0  0.69071  0.00836  0.16069  1.0000
  C   C36       1.0  0.30929  0.99164  0.83931  1.0000
  C   C37       1.0  0.78259  0.07411  0.53730  1.0000
  C   C38       1.0  0.21741  0.92589  0.46270  1.0000
  C   C39       1.0  0.70611  0.40520  0.21922  1.0000
  C   C40       1.0  0.29389  0.59479  0.78078  1.0000
  N   N1        1.0  0.80018  0.88885  0.18357  1.0000
  N   N2        1.0  0.19982  0.11115  0.81643  1.0000
  N   N3        1.0  0.18077  0.55162  0.20179  1.0000
  N   N4        1.0  0.81923  0.44838  0.79821  1.0000
  N   N5        1.0  0.47208  0.24686  0.09750  1.0000
  N   N6        1.0  0.52792  0.75314  0.90251  1.0000
  O   O1        1.0  0.59236  0.50126  0.20483  1.0000
  O   O2        1.0  0.40763  0.49874  0.79517  1.0000
  O   O3        1.0  0.74699  0.83883  0.43539  1.0000
  O   O4        1.0  0.25301  0.16117  0.56461  1.0000
  O   O5        1.0  0.13978  0.22163  0.04319  1.0000
  O   O6        1.0  0.86022  0.77837  0.95681  1.0000
  O   O7        1.0  0.83046  0.40344  0.10863  1.0000
  O   O8        1.0  0.16954  0.59656  0.89137  1.0000
  O   O9        1.0  0.07884  0.27256  0.25100  1.0000
  O   O10       1.0  0.92116  0.72744  0.74900  1.0000
