data_image0
_chemical_formula_structural       Zn2H22C30N2O12
_chemical_formula_sum              "Zn2 H22 C30 N2 O12"
_cell_length_a       5.21857
_cell_length_b       8.84705
_cell_length_c       14.7759
_cell_angle_alpha    92.5933
_cell_angle_beta     89.9992
_cell_angle_gamma    90.0004

_space_group_name_H-M_alt    "P 1"
_space_group_IT_number       1

loop_
  _space_group_symop_operation_xyz
  'x, y, z'

loop_
  _atom_site_type_symbol
  _atom_site_label
  _atom_site_symmetry_multiplicity
  _atom_site_fract_x
  _atom_site_fract_y
  _atom_site_fract_z
  _atom_site_occupancy
  Zn  Zn1       1.0  0.45055  0.62267  0.33394  1.0000
  Zn  Zn2       1.0  0.54943  0.12266  0.33394  1.0000
  H   H1        1.0  0.52375  0.04429  0.85911  1.0000
  H   H2        1.0  0.47629  0.54429  0.85912  1.0000
  H   H3        1.0  0.07674  0.95001  0.55264  1.0000
  H   H4        1.0  0.92326  0.45003  0.55265  1.0000
  H   H5        1.0  0.07380  0.07367  0.70672  1.0000
  H   H6        1.0  0.92624  0.57368  0.70672  1.0000
  H   H7        1.0  0.37041  0.84163  0.76578  1.0000
  H   H8        1.0  0.62961  0.34163  0.76578  1.0000
  H   H9        1.0  0.37861  0.71556  0.61153  1.0000
  H   H10       1.0  0.62137  0.21554  0.61152  1.0000
  H   H11       1.0  0.14717  0.06919  0.04832  1.0000
  H   H12       1.0  0.85283  0.56918  0.04832  1.0000
  H   H13       1.0  0.02366  0.19415  0.19519  1.0000
  H   H14       1.0  0.97633  0.69415  0.19519  1.0000
  H   H15       1.0  0.39004  0.40979  0.06496  1.0000
  H   H16       1.0  0.60996  0.90979  0.06496  1.0000
  H   H17       1.0  0.49226  0.26831  0.92108  1.0000
  H   H18       1.0  0.50774  0.76832  0.92107  1.0000
  H   H19       1.0  0.07576  0.45215  0.37680  1.0000
  H   H20       1.0  0.92422  0.95215  0.37680  1.0000
  H   H21       1.0  0.99776  0.63168  0.37262  1.0000
  H   H22       1.0  0.00222  0.13169  0.37263  1.0000
  C   C1        1.0  0.72685  0.75159  0.48009  1.0000
  C   C2        1.0  0.27312  0.25159  0.48009  1.0000
  C   C3        1.0  0.72797  0.82436  0.57238  1.0000
  C   C4        1.0  0.27203  0.32435  0.57238  1.0000
  C   C5        1.0  0.92312  0.92568  0.59977  1.0000
  C   C6        1.0  0.07689  0.42568  0.59977  1.0000
  C   C7        1.0  0.92270  0.99477  0.68618  1.0000
  C   C8        1.0  0.07734  0.49478  0.68618  1.0000
  C   C9        1.0  0.72353  0.96340  0.74654  1.0000
  C   C10       1.0  0.27651  0.46341  0.74654  1.0000
  C   C11       1.0  0.52706  0.86277  0.71926  1.0000
  C   C12       1.0  0.47296  0.36278  0.71926  1.0000
  C   C13       1.0  0.53011  0.79370  0.63310  1.0000
  C   C14       1.0  0.46989  0.29370  0.63310  1.0000
  C   C15       1.0  0.90606  0.07881  0.88852  1.0000
  C   C16       1.0  0.09397  0.57881  0.88852  1.0000
  C   C17       1.0  0.82806  0.15912  0.97524  1.0000
  C   C18       1.0  0.17194  0.65911  0.97524  1.0000
  C   C19       1.0  0.97823  0.14130  0.05273  1.0000
  C   C20       1.0  0.02177  0.64130  0.05272  1.0000
  C   C21       1.0  0.91018  0.21330  0.13496  1.0000
  C   C22       1.0  0.08981  0.71329  0.13496  1.0000
  C   C23       1.0  0.69913  0.31103  0.13905  1.0000
  C   C24       1.0  0.30087  0.81104  0.13905  1.0000
  C   C25       1.0  0.55240  0.33240  0.06123  1.0000
  C   C26       1.0  0.44760  0.83240  0.06123  1.0000
  C   C27       1.0  0.61204  0.25366  0.98043  1.0000
  C   C28       1.0  0.38797  0.75365  0.98043  1.0000
  C   C29       1.0  0.62986  0.39812  0.22413  1.0000
  C   C30       1.0  0.37014  0.89812  0.22412  1.0000
  N   N1        1.0  0.70567  0.03461  0.83332  1.0000
  N   N2        1.0  0.29435  0.53461  0.83332  1.0000
  O   O1        1.0  0.09239  0.54501  0.34092  1.0000
  O   O2        1.0  0.90760  0.04501  0.34092  1.0000
  O   O3        1.0  0.89797  0.78614  0.42287  1.0000
  O   O4        1.0  0.10200  0.28614  0.42288  1.0000
  O   O5        1.0  0.55161  0.65258  0.46124  1.0000
  O   O6        1.0  0.44834  0.15256  0.46124  1.0000
  O   O7        1.0  0.13452  0.05290  0.86931  1.0000
  O   O8        1.0  0.86546  0.55288  0.86931  1.0000
  O   O9        1.0  0.61110  0.33751  0.30045  1.0000
  O   O10       1.0  0.38888  0.83751  0.30045  1.0000
  O   O11       1.0  0.58758  0.53944  0.21723  1.0000
  O   O12       1.0  0.41242  0.03944  0.21723  1.0000
