data_image0
_chemical_formula_structural       K8H16C12N8O28
_chemical_formula_sum              "K8 H16 C12 N8 O28"
_cell_length_a       5.37581
_cell_length_b       11.9157
_cell_length_c       13.129
_cell_angle_alpha    89.999
_cell_angle_beta     90.0006
_cell_angle_gamma    89.9981

_space_group_name_H-M_alt    "P 1"
_space_group_IT_number       1

loop_
  _space_group_symop_operation_xyz
  'x, y, z'

loop_
  _atom_site_type_symbol
  _atom_site_label
  _atom_site_symmetry_multiplicity
  _atom_site_fract_x
  _atom_site_fract_y
  _atom_site_fract_z
  _atom_site_occupancy
  K   K1        1.0  0.55235  0.89489  0.78814  1.0000
  K   K2        1.0  0.94765  0.10514  0.28814  1.0000
  K   K3        1.0  0.44765  0.39489  0.71185  1.0000
  K   K4        1.0  0.05236  0.60513  0.21186  1.0000
  K   K5        1.0  0.94800  0.13574  0.78582  1.0000
  K   K6        1.0  0.55203  0.86426  0.28584  1.0000
  K   K7        1.0  0.05199  0.63576  0.71419  1.0000
  K   K8        1.0  0.44801  0.36425  0.21418  1.0000
  H   H1        1.0  0.75089  0.30985  0.94063  1.0000
  H   H2        1.0  0.74910  0.69015  0.44064  1.0000
  H   H3        1.0  0.24911  0.80984  0.55936  1.0000
  H   H4        1.0  0.25089  0.19016  0.05936  1.0000
  H   H5        1.0  0.89072  0.38563  0.86558  1.0000
  H   H6        1.0  0.60929  0.61437  0.36557  1.0000
  H   H7        1.0  0.10931  0.88563  0.63441  1.0000
  H   H8        1.0  0.39071  0.11437  0.13441  1.0000
  H   H9        1.0  0.43502  0.13965  0.93690  1.0000
  H   H10       1.0  0.06496  0.86034  0.43691  1.0000
  H   H11       1.0  0.56499  0.63964  0.56308  1.0000
  H   H12       1.0  0.93501  0.36035  0.06309  1.0000
  H   H13       1.0  0.38106  0.26706  0.91448  1.0000
  H   H14       1.0  0.11891  0.73294  0.41449  1.0000
  H   H15       1.0  0.61894  0.76705  0.58551  1.0000
  H   H16       1.0  0.88107  0.23294  0.08550  1.0000
  C   C1        1.0  0.54394  0.06656  0.53334  1.0000
  C   C2        1.0  0.95606  0.93345  0.03335  1.0000
  C   C3        1.0  0.45606  0.56655  0.96668  1.0000
  C   C4        1.0  0.04393  0.43345  0.46665  1.0000
  C   C5        1.0  0.42630  0.11801  0.61707  1.0000
  C   C6        1.0  0.07370  0.88202  0.11708  1.0000
  C   C7        1.0  0.57369  0.61799  0.88295  1.0000
  C   C8        1.0  0.92631  0.38200  0.38293  1.0000
  C   C9        1.0  0.76105  0.99104  0.53422  1.0000
  C   C10       1.0  0.73896  0.00896  0.03421  1.0000
  C   C11       1.0  0.23894  0.49103  0.96580  1.0000
  C   C12       1.0  0.26106  0.50896  0.46577  1.0000
  N   N1        1.0  0.22966  0.17270  0.47002  1.0000
  N   N2        1.0  0.27033  0.82730  0.97002  1.0000
  N   N3        1.0  0.77033  0.67270  0.02999  1.0000
  N   N4        1.0  0.72968  0.32730  0.52998  1.0000
  N   N5        1.0  0.41471  0.10432  0.44865  1.0000
  N   N6        1.0  0.08530  0.89568  0.94865  1.0000
  N   N7        1.0  0.58528  0.60431  0.05136  1.0000
  N   N8        1.0  0.91472  0.39570  0.55134  1.0000
  O   O1        1.0  0.23135  0.18250  0.57636  1.0000
  O   O2        1.0  0.26866  0.81752  0.07637  1.0000
  O   O3        1.0  0.76865  0.68248  0.92364  1.0000
  O   O4        1.0  0.73135  0.31750  0.42364  1.0000
  O   O5        1.0  0.45549  0.11935  0.71103  1.0000
  O   O6        1.0  0.04451  0.88069  0.21103  1.0000
  O   O7        1.0  0.54448  0.61932  0.78898  1.0000
  O   O8        1.0  0.95551  0.38064  0.28896  1.0000
  O   O9        1.0  0.45390  0.08086  0.35434  1.0000
  O   O10       1.0  0.04610  0.91913  0.85434  1.0000
  O   O11       1.0  0.54609  0.58086  0.14567  1.0000
  O   O12       1.0  0.95390  0.41915  0.64566  1.0000
  O   O13       1.0  0.84805  0.96774  0.62235  1.0000
  O   O14       1.0  0.65196  0.03227  0.12233  1.0000
  O   O15       1.0  0.15195  0.46773  0.87767  1.0000
  O   O16       1.0  0.34805  0.53226  0.37764  1.0000
  O   O17       1.0  0.84498  0.95488  0.44938  1.0000
  O   O18       1.0  0.65501  0.04512  0.94936  1.0000
  O   O19       1.0  0.15499  0.45488  0.05064  1.0000
  O   O20       1.0  0.34498  0.54512  0.55062  1.0000
  O   O21       1.0  0.74981  0.33070  0.86691  1.0000
  O   O22       1.0  0.75020  0.66930  0.36691  1.0000
  O   O23       1.0  0.25023  0.83069  0.63308  1.0000
  O   O24       1.0  0.24978  0.16930  0.13308  1.0000
  O   O25       1.0  0.29685  0.19692  0.93122  1.0000
  O   O26       1.0  0.20312  0.80308  0.43123  1.0000
  O   O27       1.0  0.70314  0.69690  0.56876  1.0000
  O   O28       1.0  0.79685  0.30308  0.06876  1.0000
