data_image0
_chemical_formula_structural       V4Zn2H16C20N4O12
_chemical_formula_sum              "V4 Zn2 H16 C20 N4 O12"
_cell_length_a       8.06828
_cell_length_b       8.1965
_cell_length_c       10.2845
_cell_angle_alpha    72.2445
_cell_angle_beta     84.1203
_cell_angle_gamma    76.6044

_space_group_name_H-M_alt    "P 1"
_space_group_IT_number       1

loop_
  _space_group_symop_operation_xyz
  'x, y, z'

loop_
  _atom_site_type_symbol
  _atom_site_label
  _atom_site_symmetry_multiplicity
  _atom_site_fract_x
  _atom_site_fract_y
  _atom_site_fract_z
  _atom_site_occupancy
  V   V1        1.0  0.12192  0.61168  0.15166  1.0000
  V   V2        1.0  0.87808  0.38832  0.84834  1.0000
  V   V3        1.0  0.26276  0.27188  0.02473  1.0000
  V   V4        1.0  0.73724  0.72812  0.97527  1.0000
  Zn  Zn1       1.0  0.40620  0.85924  0.21503  1.0000
  Zn  Zn2       1.0  0.59380  0.14076  0.78497  1.0000
  H   H1        1.0  0.19880  0.62769  0.43914  1.0000
  H   H2        1.0  0.80120  0.37231  0.56086  1.0000
  H   H3        1.0  0.19141  0.52385  0.69358  1.0000
  H   H4        1.0  0.80859  0.47615  0.30642  1.0000
  H   H5        1.0  0.41547  0.58324  0.81905  1.0000
  H   H6        1.0  0.58453  0.41676  0.18095  1.0000
  H   H7        1.0  0.63117  0.74576  0.68312  1.0000
  H   H8        1.0  0.36883  0.25424  0.31688  1.0000
  H   H9        1.0  0.84458  0.80417  0.55519  1.0000
  H   H10       1.0  0.15543  0.19583  0.44481  1.0000
  H   H11       1.0  0.04350  0.96722  0.38955  1.0000
  H   H12       1.0  0.95650  0.03278  0.61045  1.0000
  H   H13       1.0  0.96425  0.10537  0.14623  1.0000
  H   H14       1.0  0.03575  0.89463  0.85377  1.0000
  H   H15       1.0  0.68736  0.07557  0.07475  1.0000
  H   H16       1.0  0.31263  0.92443  0.92525  1.0000
  C   C1        1.0  0.29176  0.65150  0.49753  1.0000
  C   C2        1.0  0.70824  0.34850  0.50247  1.0000
  C   C3        1.0  0.29021  0.59244  0.63974  1.0000
  C   C4        1.0  0.70979  0.40756  0.36026  1.0000
  C   C5        1.0  0.41344  0.62632  0.70784  1.0000
  C   C6        1.0  0.58656  0.37368  0.29216  1.0000
  C   C7        1.0  0.53551  0.71546  0.63212  1.0000
  C   C8        1.0  0.46449  0.28454  0.36788  1.0000
  C   C9        1.0  0.53173  0.76845  0.48971  1.0000
  C   C10       1.0  0.46827  0.23155  0.51029  1.0000
  C   C11       1.0  0.65885  0.86009  0.40128  1.0000
  C   C12       1.0  0.34115  0.13991  0.59872  1.0000
  C   C13       1.0  0.81129  0.87056  0.44924  1.0000
  C   C14       1.0  0.18871  0.12944  0.55076  1.0000
  C   C15       1.0  0.92219  0.95952  0.35674  1.0000
  C   C16       1.0  0.07781  0.04048  0.64326  1.0000
  C   C17       1.0  0.87921  0.03651  0.22048  1.0000
  C   C18       1.0  0.12079  0.96349  0.77952  1.0000
  C   C19       1.0  0.72666  0.01863  0.18024  1.0000
  C   C20       1.0  0.27334  0.98137  0.81976  1.0000
  N   N1        1.0  0.40931  0.73812  0.42459  1.0000
  N   N2        1.0  0.59069  0.26188  0.57540  1.0000
  N   N3        1.0  0.62076  0.93132  0.26850  1.0000
  N   N4        1.0  0.37924  0.06868  0.73150  1.0000
  O   O1        1.0  0.22099  0.76495  0.16354  1.0000
  O   O2        1.0  0.77901  0.23505  0.83646  1.0000
  O   O3        1.0  0.92574  0.70704  0.06030  1.0000
  O   O4        1.0  0.07426  0.29296  0.93970  1.0000
  O   O5        1.0  0.25984  0.47320  0.05870  1.0000
  O   O6        1.0  0.74016  0.52680  0.94130  1.0000
  O   O7        1.0  0.26781  0.10842  0.17115  1.0000
  O   O8        1.0  0.73219  0.89158  0.82884  1.0000
  O   O9        1.0  0.56447  0.77335  0.07192  1.0000
  O   O10       1.0  0.43553  0.22665  0.92808  1.0000
  O   O11       1.0  0.07941  0.49178  0.30462  1.0000
  O   O12       1.0  0.92059  0.50822  0.69538  1.0000
