data_image0
_chemical_formula_structural       V6Zn2H22C30N6O17
_chemical_formula_sum              "V6 Zn2 H22 C30 N6 O17"
_cell_length_a       9.70198
_cell_length_b       10.1646
_cell_length_c       11.1193
_cell_angle_alpha    66.5717
_cell_angle_beta     81.6376
_cell_angle_gamma    74.4179

_space_group_name_H-M_alt    "P 1"
_space_group_IT_number       1

loop_
  _space_group_symop_operation_xyz
  'x, y, z'

loop_
  _atom_site_type_symbol
  _atom_site_label
  _atom_site_symmetry_multiplicity
  _atom_site_fract_x
  _atom_site_fract_y
  _atom_site_fract_z
  _atom_site_occupancy
  V   V1        1.0  0.27673  0.67711  0.02846  1.0000
  V   V2        1.0  0.99538  0.69058  0.87524  1.0000
  V   V3        1.0  0.86884  0.38682  0.97437  1.0000
  V   V4        1.0  0.54491  0.37523  0.13996  1.0000
  V   V5        1.0  0.41384  0.97181  0.00282  1.0000
  V   V6        1.0  0.73156  0.99969  0.81713  1.0000
  Zn  Zn1       1.0  0.79108  0.33651  0.71675  1.0000
  Zn  Zn2       1.0  0.49632  0.03356  0.24700  1.0000
  H   H1        1.0  0.48894  0.32529  0.87667  1.0000
  H   H2        1.0  0.23138  0.43839  0.82755  1.0000
  H   H3        1.0  0.16738  0.60398  0.59612  1.0000
  H   H4        1.0  0.36368  0.63912  0.42026  1.0000
  H   H5        1.0  0.54212  0.65571  0.28265  1.0000
  H   H6        1.0  0.76631  0.65829  0.14342  1.0000
  H   H7        1.0  0.00113  0.52284  0.24528  1.0000
  H   H8        1.0  0.18995  0.41289  0.35267  1.0000
  H   H9        1.0  0.39720  0.25344  0.48733  1.0000
  H   H10       1.0  0.35507  0.11697  0.72969  1.0000
  H   H11       1.0  0.10267  0.15268  0.82599  1.0000
  H   H12       1.0  0.17957  0.21129  0.14979  1.0000
  H   H13       1.0  0.93017  0.23048  0.25352  1.0000
  H   H14       1.0  0.89875  0.08441  0.49573  1.0000
  H   H15       1.0  0.11390  0.93040  0.62189  1.0000
  H   H16       1.0  0.30794  0.81872  0.72206  1.0000
  H   H17       1.0  0.54849  0.68730  0.81361  1.0000
  H   H18       1.0  0.76693  0.70692  0.66699  1.0000
  H   H19       1.0  0.93763  0.72818  0.52272  1.0000
  H   H20       1.0  0.12449  0.76129  0.33842  1.0000
  H   H21       1.0  0.05005  0.93012  0.11043  1.0000
  H   H22       1.0  0.79076  0.05001  0.07375  1.0000
  C   C1        1.0  0.45684  0.39674  0.77705  1.0000
  C   C2        1.0  0.31312  0.46120  0.74891  1.0000
  C   C3        1.0  0.27878  0.55081  0.61970  1.0000
  C   C4        1.0  0.38784  0.57157  0.52228  1.0000
  C   C5        1.0  0.52945  0.50309  0.55760  1.0000
  C   C6        1.0  0.65370  0.51690  0.46238  1.0000
  C   C7        1.0  0.64439  0.59523  0.32711  1.0000
  C   C8        1.0  0.77059  0.59709  0.24900  1.0000
  C   C9        1.0  0.90229  0.52138  0.30566  1.0000
  C   C10       1.0  0.90433  0.44664  0.44203  1.0000
  C   C11       1.0  0.03550  0.36118  0.51644  1.0000
  C   C12       1.0  0.17311  0.35135  0.45694  1.0000
  C   C13       1.0  0.28966  0.26193  0.53352  1.0000
  C   C14       1.0  0.26605  0.18661  0.66727  1.0000
  C   C15       1.0  0.12623  0.20465  0.72104  1.0000
  C   C16       1.0  0.16035  0.15377  0.25469  1.0000
  C   C17       1.0  0.02226  0.16287  0.31270  1.0000
  C   C18       1.0  0.00473  0.08191  0.44629  1.0000
  C   C19       1.0  0.12559  0.99560  0.51795  1.0000
  C   C20       1.0  0.26086  0.99370  0.45438  1.0000
  C   C21       1.0  0.39574  0.90990  0.52339  1.0000
  C   C22       1.0  0.40410  0.82749  0.65825  1.0000
  C   C23       1.0  0.53891  0.75414  0.70929  1.0000
  C   C24       1.0  0.66187  0.76403  0.62708  1.0000
  C   C25       1.0  0.64611  0.84816  0.49327  1.0000
  C   C26       1.0  0.76565  0.86625  0.39308  1.0000
  C   C27       1.0  0.90858  0.79586  0.42188  1.0000
  C   C28       1.0  0.01243  0.81669  0.31955  1.0000
  C   C29       1.0  0.97202  0.90850  0.19245  1.0000
  C   C30       1.0  0.82739  0.97620  0.17143  1.0000
  N   N1        1.0  0.56164  0.41833  0.68366  1.0000
  N   N2        1.0  0.78173  0.44674  0.51548  1.0000
  N   N3        1.0  0.01369  0.28958  0.64717  1.0000
  N   N4        1.0  0.27657  0.07133  0.32410  1.0000
  N   N5        1.0  0.51534  0.91781  0.44604  1.0000
  N   N6        1.0  0.72724  0.95444  0.26916  1.0000
  O   O1        1.0  0.50721  0.36466  0.28996  1.0000
  O   O2        1.0  0.74633  0.03014  0.66173  1.0000
  O   O3        1.0  0.43947  0.54989  0.02621  1.0000
  O   O4        1.0  0.86075  0.82846  0.90729  1.0000
  O   O5        1.0  0.96662  0.51722  0.97835  1.0000
  O   O6        1.0  0.30683  0.84882  0.00203  1.0000
  O   O7        1.0  0.55379  0.97834  0.87691  1.0000
  O   O8        1.0  0.79769  0.44661  0.82706  1.0000
  O   O9        1.0  0.97906  0.22803  0.00217  1.0000
  O   O10       1.0  0.31248  0.13553  0.97151  1.0000
  O   O11       1.0  0.50589  0.23273  0.12139  1.0000
  O   O12       1.0  0.48324  0.90977  0.15130  1.0000
  O   O13       1.0  0.73198  0.37237  0.10336  1.0000
  O   O14       1.0  0.76990  0.13941  0.84108  1.0000
  O   O15       1.0  0.99144  0.71099  0.72398  1.0000
  O   O16       1.0  0.16981  0.70438  0.89837  1.0000
  O   O17       1.0  0.19277  0.61599  0.16858  1.0000
