data_image0
_chemical_formula_structural       Na2H8C6N6O8
_chemical_formula_sum              "Na2 H8 C6 N6 O8"
_cell_length_a       3.56128
_cell_length_b       9.16309
_cell_length_c       9.15739
_cell_angle_alpha    91.9507
_cell_angle_beta     98.1825
_cell_angle_gamma    91.1224

_space_group_name_H-M_alt    "P 1"
_space_group_IT_number       1

loop_
  _space_group_symop_operation_xyz
  'x, y, z'

loop_
  _atom_site_type_symbol
  _atom_site_label
  _atom_site_symmetry_multiplicity
  _atom_site_fract_x
  _atom_site_fract_y
  _atom_site_fract_z
  _atom_site_occupancy
  Na  Na1       1.0  0.66808  0.37736  0.36433  1.0000
  Na  Na2       1.0  0.33190  0.62265  0.63567  1.0000
  H   H1        1.0  0.03833  0.51981  0.18092  1.0000
  H   H2        1.0  0.96165  0.48020  0.81908  1.0000
  H   H3        1.0  0.05599  0.35520  0.11302  1.0000
  H   H4        1.0  0.94400  0.64480  0.88697  1.0000
  H   H5        1.0  0.87663  0.05097  0.10619  1.0000
  H   H6        1.0  0.12341  0.94903  0.89381  1.0000
  H   H7        1.0  0.57084  0.88261  0.48732  1.0000
  H   H8        1.0  0.42917  0.11739  0.51268  1.0000
  C   C1        1.0  0.90984  0.82210  0.12338  1.0000
  C   C2        1.0  0.09016  0.17790  0.87663  1.0000
  C   C3        1.0  0.70494  0.99126  0.30422  1.0000
  C   C4        1.0  0.29506  0.00873  0.69577  1.0000
  C   C5        1.0  0.76171  0.73025  0.34280  1.0000
  C   C6        1.0  0.23830  0.26976  0.65722  1.0000
  N   N1        1.0  0.82954  0.96308  0.17245  1.0000
  N   N2        1.0  0.17049  0.03691  0.82755  1.0000
  N   N3        1.0  0.87647  0.70778  0.21005  1.0000
  N   N4        1.0  0.12352  0.29222  0.78995  1.0000
  N   N5        1.0  0.66834  0.87110  0.38570  1.0000
  N   N6        1.0  0.33168  0.12890  0.61430  1.0000
  O   O1        1.0  0.73729  0.63183  0.43390  1.0000
  O   O2        1.0  0.26271  0.36818  0.56610  1.0000
  O   O3        1.0  0.02042  0.80858  0.99915  1.0000
  O   O4        1.0  0.97956  0.19141  0.00085  1.0000
  O   O5        1.0  0.11764  0.41847  0.20312  1.0000
  O   O6        1.0  0.88234  0.58154  0.79688  1.0000
  O   O7        1.0  0.62822  0.11644  0.34847  1.0000
  O   O8        1.0  0.37180  0.88355  0.65153  1.0000
