data_image0
_chemical_formula_structural       Li2H28C28S4N2O20
_chemical_formula_sum              "Li2 H28 C28 S4 N2 O20"
_cell_length_a       6.65445
_cell_length_b       7.43007
_cell_length_c       17.7826
_cell_angle_alpha    83.8043
_cell_angle_beta     81.9288
_cell_angle_gamma    76.4219

_space_group_name_H-M_alt    "P 1"
_space_group_IT_number       1

loop_
  _space_group_symop_operation_xyz
  'x, y, z'

loop_
  _atom_site_type_symbol
  _atom_site_label
  _atom_site_symmetry_multiplicity
  _atom_site_fract_x
  _atom_site_fract_y
  _atom_site_fract_z
  _atom_site_occupancy
  Li  Li1       1.0  0.65851  0.20051  0.03637  1.0000
  Li  Li2       1.0  0.34148  0.79950  0.96363  1.0000
  H   H1        1.0  0.71251  0.98214  0.93971  1.0000
  H   H2        1.0  0.28749  0.01786  0.06029  1.0000
  H   H3        1.0  0.83626  0.13083  0.89547  1.0000
  H   H4        1.0  0.16374  0.86918  0.10453  1.0000
  H   H5        1.0  0.24658  0.31224  0.07316  1.0000
  H   H6        1.0  0.75342  0.68777  0.92684  1.0000
  H   H7        1.0  0.31827  0.26332  0.98754  1.0000
  H   H8        1.0  0.68173  0.73668  0.01246  1.0000
  H   H9        1.0  0.83204  0.66455  0.31476  1.0000
  H   H10       1.0  0.16796  0.33546  0.68524  1.0000
  H   H11       1.0  0.57017  0.63522  0.42755  1.0000
  H   H12       1.0  0.42983  0.36479  0.57245  1.0000
  H   H13       1.0  0.08427  0.96679  0.30324  1.0000
  H   H14       1.0  0.91573  0.03320  0.69676  1.0000
  H   H15       1.0  0.34606  0.00047  0.18997  1.0000
  H   H16       1.0  0.65394  0.99953  0.81003  1.0000
  H   H17       1.0  0.91696  0.23729  0.26245  1.0000
  H   H18       1.0  0.08304  0.76270  0.73755  1.0000
  H   H19       1.0  0.67670  0.15549  0.37591  1.0000
  H   H20       1.0  0.32330  0.84450  0.62409  1.0000
  H   H21       1.0  0.15371  0.48473  0.26800  1.0000
  H   H22       1.0  0.84629  0.51526  0.73200  1.0000
  H   H23       1.0  0.39035  0.55972  0.15510  1.0000
  H   H24       1.0  0.60965  0.44029  0.84490  1.0000
  H   H25       1.0  0.10196  0.66057  0.53870  1.0000
  H   H26       1.0  0.89805  0.33943  0.46131  1.0000
  H   H27       1.0  0.20785  0.16399  0.49694  1.0000
  H   H28       1.0  0.79215  0.83600  0.50306  1.0000
  C   C1        1.0  0.60201  0.83176  0.24588  1.0000
  C   C2        1.0  0.39799  0.16823  0.75412  1.0000
  C   C3        1.0  0.66851  0.73066  0.31237  1.0000
  C   C4        1.0  0.33150  0.26934  0.68763  1.0000
  C   C5        1.0  0.52221  0.71476  0.37547  1.0000
  C   C6        1.0  0.47780  0.28524  0.62453  1.0000
  C   C7        1.0  0.31166  0.80019  0.37177  1.0000
  C   C8        1.0  0.68835  0.19981  0.62823  1.0000
  C   C9        1.0  0.24860  0.90405  0.30525  1.0000
  C   C10       1.0  0.75140  0.09594  0.69475  1.0000
  C   C11       1.0  0.39342  0.92075  0.24201  1.0000
  C   C12       1.0  0.60658  0.07925  0.75799  1.0000
  C   C13       1.0  0.15150  0.77981  0.43722  1.0000
  C   C14       1.0  0.84851  0.22019  0.56278  1.0000
  C   C15       1.0  0.66661  0.40057  0.20312  1.0000
  C   C16       1.0  0.33339  0.59943  0.79688  1.0000
  C   C17       1.0  0.74911  0.28707  0.26436  1.0000
  C   C18       1.0  0.25089  0.71293  0.73564  1.0000
  C   C19       1.0  0.61488  0.24366  0.32765  1.0000
  C   C20       1.0  0.38512  0.75634  0.67235  1.0000
  C   C21       1.0  0.40008  0.31725  0.32914  1.0000
  C   C22       1.0  0.59992  0.68274  0.67086  1.0000
  C   C23       1.0  0.32017  0.42872  0.26654  1.0000
  C   C24       1.0  0.67983  0.57128  0.73346  1.0000
  C   C25       1.0  0.45248  0.47021  0.20300  1.0000
  C   C26       1.0  0.54751  0.52979  0.79700  1.0000
  C   C27       1.0  0.24861  0.28576  0.39593  1.0000
  C   C28       1.0  0.75140  0.71424  0.60408  1.0000
  S   S1        1.0  0.78254  0.83994  0.16244  1.0000
  S   S2        1.0  0.21745  0.16007  0.83756  1.0000
  S   S3        1.0  0.83253  0.46876  0.12346  1.0000
  S   S4        1.0  0.16746  0.53124  0.87654  1.0000
  N   N1        1.0  0.75518  0.68883  0.10890  1.0000
  N   N2        1.0  0.24481  0.31117  0.89110  1.0000
  O   O1        1.0  0.73534  0.10976  0.93936  1.0000
  O   O2        1.0  0.26466  0.89025  0.06064  1.0000
  O   O3        1.0  0.35595  0.23221  0.04035  1.0000
  O   O4        1.0  0.64404  0.76779  0.95965  1.0000
  O   O5        1.0  0.71399  0.01850  0.12135  1.0000
  O   O6        1.0  0.28599  0.98151  0.87865  1.0000
  O   O7        1.0  0.98922  0.80301  0.18729  1.0000
  O   O8        1.0  0.01077  0.19701  0.81270  1.0000
  O   O9        1.0  0.78797  0.39581  0.05614  1.0000
  O   O10       1.0  0.21203  0.60419  0.94386  1.0000
  O   O11       1.0  0.04522  0.40677  0.14257  1.0000
  O   O12       1.0  0.95478  0.59323  0.85743  1.0000
  O   O13       1.0  0.96513  0.86322  0.43634  1.0000
  O   O14       1.0  0.03488  0.13677  0.56366  1.0000
  O   O15       1.0  0.22211  0.66678  0.49489  1.0000
  O   O16       1.0  0.77790  0.33321  0.50512  1.0000
  O   O17       1.0  0.05921  0.36025  0.39547  1.0000
  O   O18       1.0  0.94079  0.63975  0.60453  1.0000
  O   O19       1.0  0.32569  0.17840  0.45382  1.0000
  O   O20       1.0  0.67432  0.82160  0.54618  1.0000
