data_image0
_chemical_formula_structural       CdH24C28N18
_chemical_formula_sum              "Cd1 H24 C28 N18"
_cell_length_a       8.52383
_cell_length_b       9.32189
_cell_length_c       9.73818
_cell_angle_alpha    94.7906
_cell_angle_beta     95.4574
_cell_angle_gamma    97.3789

_space_group_name_H-M_alt    "P 1"
_space_group_IT_number       1

loop_
  _space_group_symop_operation_xyz
  'x, y, z'

loop_
  _atom_site_type_symbol
  _atom_site_label
  _atom_site_symmetry_multiplicity
  _atom_site_fract_x
  _atom_site_fract_y
  _atom_site_fract_z
  _atom_site_occupancy
  Cd  Cd1       1.0  0.00000  0.00000  0.00000  1.0000
  H   H1        1.0  0.67447  0.58096  0.25486  1.0000
  H   H2        1.0  0.32553  0.41904  0.74514  1.0000
  H   H3        1.0  0.85321  0.75152  0.43008  1.0000
  H   H4        1.0  0.14678  0.24848  0.56992  1.0000
  H   H5        1.0  0.92413  0.67402  0.66510  1.0000
  H   H6        1.0  0.07587  0.32598  0.33490  1.0000
  H   H7        1.0  0.81839  0.42901  0.72115  1.0000
  H   H8        1.0  0.18161  0.57099  0.27885  1.0000
  H   H9        1.0  0.52771  0.23620  0.63796  1.0000
  H   H10       1.0  0.47229  0.76380  0.36204  1.0000
  H   H11       1.0  0.55274  0.14761  0.47416  1.0000
  H   H12       1.0  0.44726  0.85239  0.52584  1.0000
  H   H13       1.0  0.43273  0.25531  0.31318  1.0000
  H   H14       1.0  0.56727  0.74469  0.68682  1.0000
  H   H15       1.0  0.50372  0.37100  0.19086  1.0000
  H   H16       1.0  0.49628  0.62900  0.80914  1.0000
  H   H17       1.0  0.01631  0.95580  0.63042  1.0000
  H   H18       1.0  0.98369  0.04420  0.36958  1.0000
  H   H19       1.0  0.69535  0.17378  0.84446  1.0000
  H   H20       1.0  0.30465  0.82622  0.15554  1.0000
  H   H21       1.0  0.63871  0.86160  0.12689  1.0000
  H   H22       1.0  0.36129  0.13840  0.87311  1.0000
  H   H23       1.0  0.83354  0.30325  0.15015  1.0000
  H   H24       1.0  0.16646  0.69675  0.84985  1.0000
  C   C1        1.0  0.68473  0.36577  0.52115  1.0000
  C   C2        1.0  0.31528  0.63423  0.47885  1.0000
  C   C3        1.0  0.64556  0.40910  0.38858  1.0000
  C   C4        1.0  0.35444  0.59090  0.61142  1.0000
  C   C5        1.0  0.70697  0.54801  0.35744  1.0000
  C   C6        1.0  0.29303  0.45199  0.64256  1.0000
  C   C7        1.0  0.80649  0.64382  0.45587  1.0000
  C   C8        1.0  0.19351  0.35618  0.54413  1.0000
  C   C9        1.0  0.84669  0.60041  0.58687  1.0000
  C   C10       1.0  0.15331  0.39959  0.41313  1.0000
  C   C11       1.0  0.78596  0.46237  0.61868  1.0000
  C   C12       1.0  0.21404  0.53763  0.38132  1.0000
  C   C13       1.0  0.61385  0.22008  0.56281  1.0000
  C   C14       1.0  0.38616  0.77992  0.43719  1.0000
  C   C15       1.0  0.54075  0.30942  0.27671  1.0000
  C   C16       1.0  0.45924  0.69059  0.72329  1.0000
  C   C17       1.0  0.92076  0.01743  0.65417  1.0000
  C   C18       1.0  0.07924  0.98257  0.34583  1.0000
  C   C19       1.0  0.76193  0.12800  0.76615  1.0000
  C   C20       1.0  0.23807  0.87200  0.23385  1.0000
  C   C21       1.0  0.65812  0.97904  0.15030  1.0000
  C   C22       1.0  0.34188  0.02096  0.84970  1.0000
  C   C23       1.0  0.75923  0.20194  0.16065  1.0000
  C   C24       1.0  0.24077  0.79806  0.83935  1.0000
  C   C25       1.0  0.83193  0.63476  0.97979  1.0000
  C   C26       1.0  0.16807  0.36524  0.02021  1.0000
  C   C27       1.0  0.65097  0.42602  0.94848  1.0000
  C   C28       1.0  0.34902  0.57398  0.05152  1.0000
  N   N1        1.0  0.73227  0.14218  0.63037  1.0000
  N   N2        1.0  0.26773  0.85782  0.36963  1.0000
  N   N3        1.0  0.83264  0.07206  0.55653  1.0000
  N   N4        1.0  0.16736  0.92794  0.44347  1.0000
  N   N5        1.0  0.88119  0.04953  0.78470  1.0000
  N   N6        1.0  0.11881  0.95047  0.21530  1.0000
  N   N7        1.0  0.62249  0.19201  0.21981  1.0000
  N   N8        1.0  0.37751  0.80799  0.78019  1.0000
  N   N9        1.0  0.55646  0.05042  0.21460  1.0000
  N   N10       1.0  0.44354  0.94958  0.78540  1.0000
  N   N11       1.0  0.78492  0.06845  0.11520  1.0000
  N   N12       1.0  0.21508  0.93155  0.88480  1.0000
  N   N13       1.0  0.78499  0.50183  0.00127  1.0000
  N   N14       1.0  0.21501  0.49816  0.99873  1.0000
  N   N15       1.0  0.88730  0.75448  0.96534  1.0000
  N   N16       1.0  0.11270  0.24552  0.03466  1.0000
  N   N17       1.0  0.53556  0.34349  0.90712  1.0000
  N   N18       1.0  0.46444  0.65651  0.09288  1.0000
