data_image0
_chemical_formula_structural       Cd2H24C28S4N16
_chemical_formula_sum              "Cd2 H24 C28 S4 N16"
_cell_length_a       8.31123
_cell_length_b       8.63829
_cell_length_c       12.3962
_cell_angle_alpha    110.36
_cell_angle_beta     97.8816
_cell_angle_gamma    90.024

_space_group_name_H-M_alt    "P 1"
_space_group_IT_number       1

loop_
  _space_group_symop_operation_xyz
  'x, y, z'

loop_
  _atom_site_type_symbol
  _atom_site_label
  _atom_site_symmetry_multiplicity
  _atom_site_fract_x
  _atom_site_fract_y
  _atom_site_fract_z
  _atom_site_occupancy
  Cd  Cd1       1.0  0.50000  0.00000  0.50000  1.0000
  Cd  Cd2       1.0  0.99999  0.50000  0.50000  1.0000
  H   H1        1.0  0.95689  0.53262  0.17745  1.0000
  H   H2        1.0  0.54388  0.35509  0.82315  1.0000
  H   H3        1.0  0.04311  0.46738  0.82256  1.0000
  H   H4        1.0  0.45613  0.64491  0.17685  1.0000
  H   H5        1.0  0.85208  0.23839  0.08982  1.0000
  H   H6        1.0  0.64906  0.14878  0.91100  1.0000
  H   H7        1.0  0.14791  0.76161  0.91018  1.0000
  H   H8        1.0  0.35095  0.85123  0.08899  1.0000
  H   H9        1.0  0.99542  0.79289  0.15776  1.0000
  H   H10       1.0  0.50496  0.63504  0.84275  1.0000
  H   H11       1.0  0.00459  0.20711  0.84225  1.0000
  H   H12       1.0  0.49505  0.36497  0.15726  1.0000
  H   H13       1.0  0.88037  0.85274  0.04819  1.0000
  H   H14       1.0  0.62012  0.80449  0.95209  1.0000
  H   H15       1.0  0.11963  0.14726  0.95181  1.0000
  H   H16       1.0  0.37989  0.19552  0.04791  1.0000
  H   H17       1.0  0.50903  0.14999  0.27557  1.0000
  H   H18       1.0  0.99068  0.87472  0.72406  1.0000
  H   H19       1.0  0.49097  0.85000  0.72443  1.0000
  H   H20       1.0  0.00932  0.12527  0.27594  1.0000
  H   H21       1.0  0.79652  0.77392  0.32563  1.0000
  H   H22       1.0  0.70346  0.44852  0.67465  1.0000
  H   H23       1.0  0.20348  0.22608  0.67437  1.0000
  H   H24       1.0  0.29653  0.55148  0.32535  1.0000
  C   C1        1.0  0.80931  0.60978  0.05030  1.0000
  C   C2        1.0  0.69136  0.55965  0.95014  1.0000
  C   C3        1.0  0.19069  0.39021  0.94970  1.0000
  C   C4        1.0  0.30864  0.44035  0.04986  1.0000
  C   C5        1.0  0.86580  0.49311  0.09961  1.0000
  C   C6        1.0  0.63499  0.39361  0.90099  1.0000
  C   C7        1.0  0.13420  0.50690  0.90040  1.0000
  C   C8        1.0  0.36501  0.60639  0.09901  1.0000
  C   C9        1.0  0.80798  0.32814  0.05049  1.0000
  C   C10       1.0  0.69295  0.27794  0.95026  1.0000
  C   C11       1.0  0.19202  0.67186  0.94952  1.0000
  C   C12       1.0  0.30705  0.72206  0.04975  1.0000
  C   C13       1.0  0.87335  0.78750  0.10917  1.0000
  C   C14       1.0  0.62708  0.67833  0.89118  1.0000
  C   C15       1.0  0.12665  0.21250  0.89084  1.0000
  C   C16       1.0  0.37292  0.32167  0.10883  1.0000
  C   C17       1.0  0.59320  0.05155  0.26142  1.0000
  C   C18       1.0  0.90662  0.79039  0.73838  1.0000
  C   C19       1.0  0.40680  0.94845  0.73858  1.0000
  C   C20       1.0  0.09338  0.20961  0.26162  1.0000
  C   C21       1.0  0.73861  0.86242  0.29058  1.0000
  C   C22       1.0  0.76138  0.57206  0.70956  1.0000
  C   C23       1.0  0.26139  0.13757  0.70942  1.0000
  C   C24       1.0  0.23861  0.42794  0.29044  1.0000
  C   C25       1.0  0.12062  0.81324  0.43356  1.0000
  C   C26       1.0  0.37950  0.37963  0.56618  1.0000
  C   C27       1.0  0.87938  0.18676  0.56643  1.0000
  C   C28       1.0  0.62049  0.62036  0.43382  1.0000
  S   S1        1.0  0.21062  0.88724  0.35190  1.0000
  S   S2        1.0  0.28968  0.53533  0.64780  1.0000
  S   S3        1.0  0.78939  0.11277  0.64809  1.0000
  S   S4        1.0  0.71030  0.46467  0.35220  1.0000
  N   N1        1.0  0.76831  0.88298  0.19225  1.0000
  N   N2        1.0  0.73184  0.69087  0.80789  1.0000
  N   N3        1.0  0.23169  0.11702  0.80775  1.0000
  N   N4        1.0  0.26817  0.30914  0.19211  1.0000
  N   N5        1.0  0.67593  0.00341  0.17180  1.0000
  N   N6        1.0  0.82409  0.83181  0.82811  1.0000
  N   N7        1.0  0.32407  0.99659  0.82820  1.0000
  N   N8        1.0  0.17591  0.16819  0.17189  1.0000
  N   N9        1.0  0.62717  0.96741  0.33608  1.0000
  N   N10       1.0  0.87264  0.63159  0.66385  1.0000
  N   N11       1.0  0.37283  0.03259  0.66391  1.0000
  N   N12       1.0  0.12736  0.36841  0.33615  1.0000
  N   N13       1.0  0.05252  0.75804  0.49121  1.0000
  N   N14       1.0  0.44744  0.26675  0.50855  1.0000
  N   N15       1.0  0.94748  0.24196  0.50878  1.0000
  N   N16       1.0  0.55255  0.73325  0.49145  1.0000
