data_image0
_chemical_formula_structural       V2Zn4P4H16C24N4O18
_chemical_formula_sum              "V2 Zn4 P4 H16 C24 N4 O18"
_cell_length_a       7.96853
_cell_length_b       9.095
_cell_length_c       11.8014
_cell_angle_alpha    81.5587
_cell_angle_beta     71.6143
_cell_angle_gamma    75.262

_space_group_name_H-M_alt    "P 1"
_space_group_IT_number       1

loop_
  _space_group_symop_operation_xyz
  'x, y, z'

loop_
  _atom_site_type_symbol
  _atom_site_label
  _atom_site_symmetry_multiplicity
  _atom_site_fract_x
  _atom_site_fract_y
  _atom_site_fract_z
  _atom_site_occupancy
  V   V1        1.0  0.77705  0.63297  0.15479  1.0000
  V   V2        1.0  0.22295  0.36703  0.84521  1.0000
  Zn  Zn1       1.0  0.06365  0.88131  0.17592  1.0000
  Zn  Zn2       1.0  0.93635  0.11869  0.82408  1.0000
  Zn  Zn3       1.0  0.47835  0.74668  0.96690  1.0000
  Zn  Zn4       1.0  0.52165  0.25332  0.03310  1.0000
  P   P1        1.0  0.72236  0.92267  0.05372  1.0000
  P   P2        1.0  0.27764  0.07733  0.94628  1.0000
  P   P3        1.0  0.21324  0.53861  0.07385  1.0000
  P   P4        1.0  0.78677  0.46139  0.92615  1.0000
  H   H1        1.0  0.80341  0.22180  0.17253  1.0000
  H   H2        1.0  0.19659  0.77820  0.82747  1.0000
  H   H3        1.0  0.54131  0.36416  0.32439  1.0000
  H   H4        1.0  0.45868  0.63584  0.67562  1.0000
  H   H5        1.0  0.47229  0.25897  0.54108  1.0000
  H   H6        1.0  0.52771  0.74103  0.45892  1.0000
  H   H7        1.0  0.56106  0.05220  0.69454  1.0000
  H   H8        1.0  0.43894  0.94780  0.30546  1.0000
  H   H9        1.0  0.76641  0.81309  0.73943  1.0000
  H   H10       1.0  0.23359  0.18691  0.26056  1.0000
  H   H11       1.0  0.03547  0.59640  0.66678  1.0000
  H   H12       1.0  0.96453  0.40360  0.33322  1.0000
  H   H13       1.0  0.28339  0.47771  0.49455  1.0000
  H   H14       1.0  0.71661  0.52229  0.50545  1.0000
  H   H15       1.0  0.29946  0.59388  0.28536  1.0000
  H   H16       1.0  0.70054  0.40612  0.71464  1.0000
  C   C1        1.0  0.76573  0.17571  0.26536  1.0000
  C   C2        1.0  0.23427  0.82429  0.73464  1.0000
  C   C3        1.0  0.61926  0.25603  0.35218  1.0000
  C   C4        1.0  0.38074  0.74397  0.64782  1.0000
  C   C5        1.0  0.58172  0.19814  0.47033  1.0000
  C   C6        1.0  0.41828  0.80186  0.52967  1.0000
  C   C7        1.0  0.69155  0.05961  0.50197  1.0000
  C   C8        1.0  0.30845  0.94039  0.49803  1.0000
  C   C9        1.0  0.83148  0.98384  0.40765  1.0000
  C   C10       1.0  0.16852  0.01616  0.59235  1.0000
  C   C11       1.0  0.66972  0.99444  0.62237  1.0000
  C   C12       1.0  0.33028  0.00556  0.37763  1.0000
  C   C13       1.0  0.78245  0.86144  0.64757  1.0000
  C   C14       1.0  0.21755  0.13856  0.35243  1.0000
  C   C15       1.0  0.92505  0.78208  0.55416  1.0000
  C   C16       1.0  0.07495  0.21792  0.44584  1.0000
  C   C17       1.0  0.94791  0.84205  0.43366  1.0000
  C   C18       1.0  0.05209  0.15795  0.56634  1.0000
  C   C19       1.0  0.04847  0.64665  0.57537  1.0000
  C   C20       1.0  0.95152  0.35335  0.42463  1.0000
  C   C21       1.0  0.18458  0.58003  0.47960  1.0000
  C   C22       1.0  0.81542  0.41997  0.52040  1.0000
  C   C23       1.0  0.19570  0.64504  0.36280  1.0000
  C   C24       1.0  0.80430  0.35496  0.63720  1.0000
  N   N1        1.0  0.86572  0.04198  0.29240  1.0000
  N   N2        1.0  0.13428  0.95802  0.70760  1.0000
  N   N3        1.0  0.07968  0.77237  0.34062  1.0000
  N   N4        1.0  0.92032  0.22763  0.65938  1.0000
  O   O1        1.0  0.24922  0.70060  0.07641  1.0000
  O   O2        1.0  0.75078  0.29940  0.92359  1.0000
  O   O3        1.0  0.85897  0.83125  0.12602  1.0000
  O   O4        1.0  0.14103  0.16875  0.87398  1.0000
  O   O5        1.0  0.59411  0.05978  0.11864  1.0000
  O   O6        1.0  0.40589  0.94022  0.88136  1.0000
  O   O7        1.0  0.81924  0.95829  0.92335  1.0000
  O   O8        1.0  0.18076  0.04171  0.07665  1.0000
  O   O9        1.0  0.62140  0.78856  0.06687  1.0000
  O   O10       1.0  0.37860  0.21144  0.93313  1.0000
  O   O11       1.0  0.65262  0.60907  0.29029  1.0000
  O   O12       1.0  0.34738  0.39092  0.70971  1.0000
  O   O13       1.0  0.02265  0.53156  0.15837  1.0000
  O   O14       1.0  0.97735  0.46844  0.84163  1.0000
  O   O15       1.0  0.22537  0.52159  0.94258  1.0000
  O   O16       1.0  0.77463  0.47841  0.05742  1.0000
  O   O17       1.0  0.35406  0.41789  0.12147  1.0000
  O   O18       1.0  0.64594  0.58211  0.87853  1.0000
