data_image0
_chemical_formula_structural       Cs2P2H16C28S4N4
_chemical_formula_sum              "Cs2 P2 H16 C28 S4 N4"
_cell_length_a       7.39362
_cell_length_b       7.94149
_cell_length_c       13.4697
_cell_angle_alpha    90.0004
_cell_angle_beta     105.904
_cell_angle_gamma    90.0003

_space_group_name_H-M_alt    "P 1"
_space_group_IT_number       1

loop_
  _space_group_symop_operation_xyz
  'x, y, z'

loop_
  _atom_site_type_symbol
  _atom_site_label
  _atom_site_symmetry_multiplicity
  _atom_site_fract_x
  _atom_site_fract_y
  _atom_site_fract_z
  _atom_site_occupancy
  Cs  Cs1       1.0  0.84960  0.32916  0.00023  1.0000
  Cs  Cs2       1.0  0.15040  0.82916  0.99976  1.0000
  P   P1        1.0  0.62727  0.91820  0.99981  1.0000
  P   P2        1.0  0.37273  0.41820  0.00019  1.0000
  H   H1        1.0  0.33393  0.70189  0.55710  1.0000
  H   H2        1.0  0.66607  0.20189  0.44290  1.0000
  H   H3        1.0  0.22339  0.20191  0.55742  1.0000
  H   H4        1.0  0.77661  0.70193  0.44258  1.0000
  H   H5        1.0  0.49942  0.47711  0.48779  1.0000
  H   H6        1.0  0.50059  0.97711  0.51220  1.0000
  H   H7        1.0  0.98833  0.97725  0.48819  1.0000
  H   H8        1.0  0.01167  0.47726  0.51181  1.0000
  H   H9        1.0  0.79268  0.34777  0.59909  1.0000
  H   H10       1.0  0.20732  0.84776  0.40090  1.0000
  H   H11       1.0  0.80600  0.84841  0.59942  1.0000
  H   H12       1.0  0.19399  0.34842  0.40058  1.0000
  H   H13       1.0  0.92477  0.44265  0.77977  1.0000
  H   H14       1.0  0.07523  0.94264  0.22023  1.0000
  H   H15       1.0  0.85453  0.94317  0.78014  1.0000
  H   H16       1.0  0.14547  0.44317  0.21986  1.0000
  C   C1        1.0  0.63734  0.79520  0.89010  1.0000
  C   C2        1.0  0.36266  0.29521  0.10991  1.0000
  C   C3        1.0  0.25273  0.29530  0.89049  1.0000
  C   C4        1.0  0.74727  0.79530  0.10951  1.0000
  C   C5        1.0  0.53623  0.69705  0.70797  1.0000
  C   C6        1.0  0.46376  0.19706  0.29202  1.0000
  C   C7        1.0  0.17195  0.19704  0.70839  1.0000
  C   C8        1.0  0.82806  0.69706  0.29161  1.0000
  C   C9        1.0  0.46308  0.64671  0.60544  1.0000
  C   C10       1.0  0.53694  0.14672  0.39456  1.0000
  C   C11       1.0  0.14267  0.14664  0.60581  1.0000
  C   C12       1.0  0.85733  0.64666  0.39420  1.0000
  C   C13       1.0  0.55626  0.51979  0.56717  1.0000
  C   C14       1.0  0.44373  0.01978  0.43283  1.0000
  C   C15       1.0  0.01092  0.01995  0.56757  1.0000
  C   C16       1.0  0.98909  0.51997  0.43243  1.0000
  C   C17       1.0  0.72126  0.44678  0.62984  1.0000
  C   C18       1.0  0.27875  0.94678  0.37016  1.0000
  C   C19       1.0  0.90833  0.94722  0.63021  1.0000
  C   C20       1.0  0.09166  0.44723  0.36980  1.0000
  C   C21       1.0  0.79529  0.49785  0.73179  1.0000
  C   C22       1.0  0.20471  0.99784  0.26820  1.0000
  C   C23       1.0  0.93625  0.99826  0.73221  1.0000
  C   C24       1.0  0.06376  0.49827  0.26779  1.0000
  C   C25       1.0  0.70103  0.62170  0.77294  1.0000
  C   C26       1.0  0.29898  0.12171  0.22706  1.0000
  C   C27       1.0  0.07177  0.12192  0.77333  1.0000
  C   C28       1.0  0.92823  0.62193  0.22667  1.0000
  S   S1        1.0  0.44980  0.84291  0.77862  1.0000
  S   S2        1.0  0.55020  0.34291  0.22138  1.0000
  S   S3        1.0  0.32890  0.34282  0.77897  1.0000
  S   S4        1.0  0.67111  0.84283  0.22103  1.0000
  N   N1        1.0  0.75410  0.67867  0.87388  1.0000
  N   N2        1.0  0.24590  0.17867  0.12612  1.0000
  N   N3        1.0  0.11966  0.17892  0.87431  1.0000
  N   N4        1.0  0.88034  0.67892  0.12569  1.0000
