data_image0
_chemical_formula_structural       Zn2H24C30N6O10
_chemical_formula_sum              "Zn2 H24 C30 N6 O10"
_cell_length_a       9.49953
_cell_length_b       9.43562
_cell_length_c       9.67645
_cell_angle_alpha    90.8765
_cell_angle_beta     100.45
_cell_angle_gamma    112.603

_space_group_name_H-M_alt    "P 1"
_space_group_IT_number       1

loop_
  _space_group_symop_operation_xyz
  'x, y, z'

loop_
  _atom_site_type_symbol
  _atom_site_label
  _atom_site_symmetry_multiplicity
  _atom_site_fract_x
  _atom_site_fract_y
  _atom_site_fract_z
  _atom_site_occupancy
  Zn  Zn1       1.0  0.84607  0.99966  0.06179  1.0000
  Zn  Zn2       1.0  0.15393  0.00034  0.93821  1.0000
  H   H1        1.0  0.35573  0.69386  0.85644  1.0000
  H   H2        1.0  0.64427  0.30614  0.14356  1.0000
  H   H3        1.0  0.42075  0.55384  0.93194  1.0000
  H   H4        1.0  0.57924  0.44616  0.06807  1.0000
  H   H5        1.0  0.34005  0.43767  0.11945  1.0000
  H   H6        1.0  0.65995  0.56233  0.88055  1.0000
  H   H7        1.0  0.15330  0.37584  0.28224  1.0000
  H   H8        1.0  0.84670  0.62417  0.71777  1.0000
  H   H9        1.0  0.98080  0.52400  0.27453  1.0000
  H   H10       1.0  0.01919  0.47601  0.72547  1.0000
  H   H11       1.0  0.16336  0.04804  0.28090  1.0000
  H   H12       1.0  0.83664  0.95196  0.71909  1.0000
  H   H13       1.0  0.78780  0.16357  0.33103  1.0000
  H   H14       1.0  0.21220  0.83643  0.66897  1.0000
  H   H15       1.0  0.02029  0.26561  0.58017  1.0000
  H   H16       1.0  0.97971  0.73438  0.41983  1.0000
  H   H17       1.0  0.32117  0.11000  0.53964  1.0000
  H   H18       1.0  0.67883  0.89000  0.46036  1.0000
  H   H19       1.0  0.26182  0.20336  0.66394  1.0000
  H   H20       1.0  0.73818  0.79664  0.33606  1.0000
  H   H21       1.0  0.48982  0.25950  0.38152  1.0000
  H   H22       1.0  0.51019  0.74050  0.61847  1.0000
  H   H23       1.0  0.32648  0.48352  0.66854  1.0000
  H   H24       1.0  0.67352  0.51648  0.33146  1.0000
  C   C1        1.0  0.55708  0.79058  0.02439  1.0000
  C   C2        1.0  0.44292  0.20942  0.97561  1.0000
  C   C3        1.0  0.40255  0.65868  0.95569  1.0000
  C   C4        1.0  0.59744  0.34132  0.04431  1.0000
  C   C5        1.0  0.27015  0.50437  0.12847  1.0000
  C   C6        1.0  0.72986  0.49564  0.87154  1.0000
  C   C7        1.0  0.16495  0.46950  0.21588  1.0000
  C   C8        1.0  0.83505  0.53050  0.78412  1.0000
  C   C9        1.0  0.07139  0.55382  0.21227  1.0000
  C   C10       1.0  0.92861  0.44618  0.78773  1.0000
  C   C11       1.0  0.08628  0.67421  0.12779  1.0000
  C   C12       1.0  0.91371  0.32579  0.87221  1.0000
  C   C13       1.0  0.20391  0.71637  0.04323  1.0000
  C   C14       1.0  0.79609  0.28363  0.95677  1.0000
  C   C15       1.0  0.97387  0.75118  0.12574  1.0000
  C   C16       1.0  0.02613  0.24882  0.87426  1.0000
  C   C17       1.0  0.09009  0.09093  0.32732  1.0000
  C   C18       1.0  0.90991  0.90907  0.67268  1.0000
  C   C19       1.0  0.90028  0.15594  0.35812  1.0000
  C   C20       1.0  0.09972  0.84406  0.64188  1.0000
  C   C21       1.0  0.01246  0.20710  0.48007  1.0000
  C   C22       1.0  0.98754  0.79290  0.51993  1.0000
  C   C23       1.0  0.28144  0.20261  0.55592  1.0000
  C   C24       1.0  0.71856  0.79739  0.44407  1.0000
  C   C25       1.0  0.39772  0.35607  0.52937  1.0000
  C   C26       1.0  0.60228  0.64393  0.47062  1.0000
  C   C27       1.0  0.49519  0.36508  0.43446  1.0000
  C   C28       1.0  0.50482  0.63492  0.56554  1.0000
  C   C29       1.0  0.40303  0.49190  0.59469  1.0000
  C   C30       1.0  0.59697  0.50810  0.40531  1.0000
  N   N1        1.0  0.28722  0.62113  0.04483  1.0000
  N   N2        1.0  0.71278  0.37887  0.95517  1.0000
  N   N3        1.0  0.95003  0.08314  0.26424  1.0000
  N   N4        1.0  0.04997  0.91686  0.73576  1.0000
  N   N5        1.0  0.13104  0.16391  0.45872  1.0000
  N   N6        1.0  0.86897  0.83609  0.54127  1.0000
  O   O1        1.0  0.65932  0.82947  0.94469  1.0000
  O   O2        1.0  0.34069  0.17053  0.05531  1.0000
  O   O3        1.0  0.57671  0.84888  0.14608  1.0000
  O   O4        1.0  0.42329  0.15112  0.85392  1.0000
  O   O5        1.0  0.23825  0.82522  0.96516  1.0000
  O   O6        1.0  0.76174  0.17478  0.03483  1.0000
  O   O7        1.0  0.99732  0.87559  0.06054  1.0000
  O   O8        1.0  0.00269  0.12442  0.93946  1.0000
  O   O9        1.0  0.86276  0.69428  0.18751  1.0000
  O   O10       1.0  0.13723  0.30572  0.81248  1.0000
