data_image0
_chemical_formula_structural       Zn2H22C28N8O10
_chemical_formula_sum              "Zn2 H22 C28 N8 O10"
_cell_length_a       9.33639
_cell_length_b       9.42955
_cell_length_c       9.62614
_cell_angle_alpha    91.7227
_cell_angle_beta     112.374
_cell_angle_gamma    98.0205

_space_group_name_H-M_alt    "P 1"
_space_group_IT_number       1

loop_
  _space_group_symop_operation_xyz
  'x, y, z'

loop_
  _atom_site_type_symbol
  _atom_site_label
  _atom_site_symmetry_multiplicity
  _atom_site_fract_x
  _atom_site_fract_y
  _atom_site_fract_z
  _atom_site_occupancy
  Zn  Zn1       1.0  0.84071  0.56753  0.00357  1.0000
  Zn  Zn2       1.0  0.15930  0.43246  0.99643  1.0000
  H   H1        1.0  0.43078  0.43225  0.56156  1.0000
  H   H2        1.0  0.56922  0.56775  0.43845  1.0000
  H   H3        1.0  0.36031  0.34961  0.69196  1.0000
  H   H4        1.0  0.63969  0.65040  0.30805  1.0000
  H   H5        1.0  0.34677  0.62985  0.45517  1.0000
  H   H6        1.0  0.65323  0.37015  0.54483  1.0000
  H   H7        1.0  0.14330  0.78973  0.39039  1.0000
  H   H8        1.0  0.85670  0.21027  0.60961  1.0000
  H   H9        1.0  0.96087  0.77259  0.52849  1.0000
  H   H10       1.0  0.03913  0.22741  0.47151  1.0000
  H   H11       1.0  0.17675  0.76312  0.06486  1.0000
  H   H12       1.0  0.82326  0.23688  0.93514  1.0000
  H   H13       1.0  0.01683  0.09207  0.24451  1.0000
  H   H14       1.0  0.98315  0.90792  0.75548  1.0000
  H   H15       1.0  0.27430  0.16480  0.19374  1.0000
  H   H16       1.0  0.72570  0.83520  0.80626  1.0000
  H   H17       1.0  0.33908  0.02861  0.11286  1.0000
  H   H18       1.0  0.66092  0.97139  0.88714  1.0000
  H   H19       1.0  0.31897  0.17825  0.46410  1.0000
  H   H20       1.0  0.68103  0.82175  0.53590  1.0000
  H   H21       1.0  0.48946  0.12932  0.72446  1.0000
  H   H22       1.0  0.51053  0.87068  0.27554  1.0000
  C   C1        1.0  0.56233  0.51360  0.79593  1.0000
  C   C2        1.0  0.43768  0.48638  0.20406  1.0000
  C   C3        1.0  0.40869  0.45217  0.66382  1.0000
  C   C4        1.0  0.59131  0.54783  0.33619  1.0000
  C   C5        1.0  0.27082  0.63404  0.51679  1.0000
  C   C6        1.0  0.72918  0.36596  0.48321  1.0000
  C   C7        1.0  0.15710  0.72030  0.48075  1.0000
  C   C8        1.0  0.84289  0.27971  0.51925  1.0000
  C   C9        1.0  0.05796  0.71168  0.55964  1.0000
  C   C10       1.0  0.94204  0.28832  0.44036  1.0000
  C   C11       1.0  0.07674  0.62466  0.67697  1.0000
  C   C12       1.0  0.92326  0.37534  0.32303  1.0000
  C   C13       1.0  0.20228  0.54100  0.71982  1.0000
  C   C14       1.0  0.79772  0.45900  0.28018  1.0000
  C   C15       1.0  0.96170  0.62035  0.75200  1.0000
  C   C16       1.0  0.03830  0.37965  0.24800  1.0000
  C   C17       1.0  0.10110  0.82232  0.09744  1.0000
  C   C18       1.0  0.89890  0.17767  0.90257  1.0000
  C   C19       1.0  0.01727  0.98869  0.19215  1.0000
  C   C20       1.0  0.98273  0.01131  0.80785  1.0000
  C   C21       1.0  0.29481  0.05319  0.19967  1.0000
  C   C22       1.0  0.70518  0.94681  0.80033  1.0000
  C   C23       1.0  0.40517  0.02829  0.35479  1.0000
  C   C24       1.0  0.59482  0.97172  0.64521  1.0000
  C   C25       1.0  0.39865  0.10008  0.48117  1.0000
  C   C26       1.0  0.60135  0.89993  0.51883  1.0000
  C   C27       1.0  0.49318  0.07201  0.62590  1.0000
  C   C28       1.0  0.50682  0.92799  0.37409  1.0000
  N   N1        1.0  0.29024  0.54626  0.62910  1.0000
  N   N2        1.0  0.70977  0.45375  0.37090  1.0000
  N   N3        1.0  0.95735  0.77183  0.08757  1.0000
  N   N4        1.0  0.04265  0.22816  0.91243  1.0000
  N   N5        1.0  0.90337  0.87656  0.14840  1.0000
  N   N6        1.0  0.09663  0.12343  0.85160  1.0000
  N   N7        1.0  0.14232  0.95973  0.16104  1.0000
  N   N8        1.0  0.85768  0.04027  0.83896  1.0000
  O   O1        1.0  0.66348  0.42714  0.83850  1.0000
  O   O2        1.0  0.33652  0.57286  0.16150  1.0000
  O   O3        1.0  0.58558  0.63975  0.85293  1.0000
  O   O4        1.0  0.41444  0.36026  0.14708  1.0000
  O   O5        1.0  0.24001  0.46005  0.82516  1.0000
  O   O6        1.0  0.76000  0.53997  0.17485  1.0000
  O   O7        1.0  0.99207  0.55954  0.87719  1.0000
  O   O8        1.0  0.00793  0.44046  0.12281  1.0000
  O   O9        1.0  0.84277  0.67861  0.69329  1.0000
  O   O10       1.0  0.15723  0.32139  0.30671  1.0000
