data_image0
_chemical_formula_structural       Cd2H24C30N6O10
_chemical_formula_sum              "Cd2 H24 C30 N6 O10"
_cell_length_a       9.4222
_cell_length_b       9.71511
_cell_length_c       10.0848
_cell_angle_alpha    76.6613
_cell_angle_beta     89.581
_cell_angle_gamma    67.2007

_space_group_name_H-M_alt    "P 1"
_space_group_IT_number       1

loop_
  _space_group_symop_operation_xyz
  'x, y, z'

loop_
  _atom_site_type_symbol
  _atom_site_label
  _atom_site_symmetry_multiplicity
  _atom_site_fract_x
  _atom_site_fract_y
  _atom_site_fract_z
  _atom_site_occupancy
  Cd  Cd1       1.0  0.02395  0.32968  0.93013  1.0000
  Cd  Cd2       1.0  0.97605  0.67032  0.06987  1.0000
  H   H1        1.0  0.65986  0.18142  0.85231  1.0000
  H   H2        1.0  0.34014  0.81858  0.14769  1.0000
  H   H3        1.0  0.51815  0.11711  0.92548  1.0000
  H   H4        1.0  0.48185  0.88289  0.07452  1.0000
  H   H5        1.0  0.41898  0.16904  0.11906  1.0000
  H   H6        1.0  0.58102  0.83095  0.88094  1.0000
  H   H7        1.0  0.37151  0.33267  0.28540  1.0000
  H   H8        1.0  0.62849  0.66733  0.71461  1.0000
  H   H9        1.0  0.52840  0.49280  0.28044  1.0000
  H   H10       1.0  0.47160  0.50720  0.71956  1.0000
  H   H11       1.0  0.96111  0.65230  0.67679  1.0000
  H   H12       1.0  0.03890  0.34770  0.32321  1.0000
  H   H13       1.0  0.70341  0.52661  0.42139  1.0000
  H   H14       1.0  0.29658  0.47339  0.57861  1.0000
  H   H15       1.0  0.81462  0.29596  0.66775  1.0000
  H   H16       1.0  0.18537  0.70404  0.33224  1.0000
  H   H17       1.0  0.76098  0.76295  0.32003  1.0000
  H   H18       1.0  0.23902  0.23705  0.67997  1.0000
  H   H19       1.0  0.87604  0.81425  0.42092  1.0000
  H   H20       1.0  0.12397  0.18575  0.57908  1.0000
  H   H21       1.0  0.75824  0.97111  0.58840  1.0000
  H   H22       1.0  0.24176  0.02889  0.41161  1.0000
  H   H23       1.0  0.47969  0.84593  0.34128  1.0000
  H   H24       1.0  0.52031  0.15407  0.65873  1.0000
  C   C1        1.0  0.75591  0.96396  0.99978  1.0000
  C   C2        1.0  0.24409  0.03604  0.00022  1.0000
  C   C3        1.0  0.62814  0.12480  0.94784  1.0000
  C   C4        1.0  0.37186  0.87520  0.05216  1.0000
  C   C5        1.0  0.48988  0.23302  0.12845  1.0000
  C   C6        1.0  0.51012  0.76698  0.87155  1.0000
  C   C7        1.0  0.46321  0.32524  0.21837  1.0000
  C   C8        1.0  0.53679  0.67476  0.78163  1.0000
  C   C9        1.0  0.55274  0.41158  0.21624  1.0000
  C   C10       1.0  0.44726  0.58843  0.78375  1.0000
  C   C11       1.0  0.67136  0.40128  0.13157  1.0000
  C   C12       1.0  0.32864  0.59872  0.86843  1.0000
  C   C13       1.0  0.70537  0.29680  0.04334  1.0000
  C   C14       1.0  0.29463  0.70320  0.95666  1.0000
  C   C15       1.0  0.75394  0.50581  0.13257  1.0000
  C   C16       1.0  0.24607  0.49419  0.86743  1.0000
  C   C17       1.0  0.90744  0.58460  0.64229  1.0000
  C   C18       1.0  0.09257  0.41539  0.35770  1.0000
  C   C19       1.0  0.77026  0.51649  0.51286  1.0000
  C   C20       1.0  0.22973  0.48352  0.48714  1.0000
  C   C21       1.0  0.82776  0.40426  0.63303  1.0000
  C   C22       1.0  0.17223  0.59575  0.36697  1.0000
  C   C23       1.0  0.77825  0.77960  0.42146  1.0000
  C   C24       1.0  0.22175  0.22040  0.57854  1.0000
  C   C25       1.0  0.63453  0.89705  0.45916  1.0000
  C   C26       1.0  0.36548  0.10295  0.54084  1.0000
  C   C27       1.0  0.64504  0.98430  0.54851  1.0000
  C   C28       1.0  0.35496  0.01571  0.45149  1.0000
  C   C29       1.0  0.48839  0.91362  0.41105  1.0000
  C   C30       1.0  0.51162  0.08639  0.58895  1.0000
  N   N1        1.0  0.60349  0.22214  0.04344  1.0000
  N   N2        1.0  0.39651  0.77786  0.95656  1.0000
  N   N3        1.0  0.91330  0.44820  0.71243  1.0000
  N   N4        1.0  0.08671  0.55180  0.28756  1.0000
  N   N5        1.0  0.82256  0.62947  0.52038  1.0000
  N   N6        1.0  0.17744  0.37053  0.47962  1.0000
  O   O1        1.0  0.82286  0.92300  0.11847  1.0000
  O   O2        1.0  0.17714  0.07700  0.88153  1.0000
  O   O3        1.0  0.78474  0.87762  0.91567  1.0000
  O   O4        1.0  0.21526  0.12238  0.08433  1.0000
  O   O5        1.0  0.81046  0.26757  0.96366  1.0000
  O   O6        1.0  0.18954  0.73243  0.03634  1.0000
  O   O7        1.0  0.88168  0.48069  0.07410  1.0000
  O   O8        1.0  0.11832  0.51930  0.92590  1.0000
  O   O9        1.0  0.69721  0.61403  0.19051  1.0000
  O   O10       1.0  0.30280  0.38597  0.80949  1.0000
