data_image0
_chemical_formula_structural       H10Pb2C16N2O10
_chemical_formula_sum              "H10 Pb2 C16 N2 O10"
_cell_length_a       4.56919
_cell_length_b       9.85171
_cell_length_c       9.96497
_cell_angle_alpha    84.0592
_cell_angle_beta     83.4397
_cell_angle_gamma    77.1284

_space_group_name_H-M_alt    "P 1"
_space_group_IT_number       1

loop_
  _space_group_symop_operation_xyz
  'x, y, z'

loop_
  _atom_site_type_symbol
  _atom_site_label
  _atom_site_symmetry_multiplicity
  _atom_site_fract_x
  _atom_site_fract_y
  _atom_site_fract_z
  _atom_site_occupancy
  H   H1        1.0  0.05259  0.07758  0.86941  1.0000
  H   H2        1.0  0.94741  0.92247  0.13057  1.0000
  H   H3        1.0  0.25326  0.01931  0.71536  1.0000
  H   H4        1.0  0.74675  0.98076  0.28461  1.0000
  H   H5        1.0  0.08769  0.10861  0.51224  1.0000
  H   H6        1.0  0.91220  0.89133  0.48776  1.0000
  H   H7        1.0  0.72669  0.27775  0.37401  1.0000
  H   H8        1.0  0.27325  0.72220  0.62598  1.0000
  H   H9        1.0  0.26922  0.42477  0.49430  1.0000
  H   H10       1.0  0.73073  0.57521  0.50570  1.0000
  Pb  Pb1       1.0  0.64103  0.66627  0.90267  1.0000
  Pb  Pb2       1.0  0.35920  0.33375  0.09740  1.0000
  C   C1        1.0  0.90871  0.90823  0.79504  1.0000
  C   C2        1.0  0.09139  0.09180  0.20494  1.0000
  C   C3        1.0  0.02863  0.04254  0.77118  1.0000
  C   C4        1.0  0.97139  0.95751  0.22880  1.0000
  C   C5        1.0  0.88090  0.17154  0.55817  1.0000
  C   C6        1.0  0.11900  0.82842  0.44182  1.0000
  C   C7        1.0  0.68116  0.26557  0.48344  1.0000
  C   C8        1.0  0.31875  0.73438  0.51655  1.0000
  C   C9        1.0  0.42898  0.34827  0.55171  1.0000
  C   C10       1.0  0.57095  0.65170  0.44829  1.0000
  C   C11       1.0  0.38506  0.33739  0.69183  1.0000
  C   C12       1.0  0.61489  0.66259  0.30816  1.0000
  C   C13       1.0  0.57880  0.22999  0.76905  1.0000
  C   C14       1.0  0.42120  0.77003  0.23095  1.0000
  C   C15       1.0  0.14436  0.44331  0.76032  1.0000
  C   C16       1.0  0.85559  0.55666  0.23970  1.0000
  N   N1        1.0  0.83031  0.15324  0.69526  1.0000
  N   N2        1.0  0.16964  0.84677  0.30473  1.0000
  O   O1        1.0  0.03546  0.81415  0.88163  1.0000
  O   O2        1.0  0.96471  0.18590  0.11834  1.0000
  O   O3        1.0  0.69770  0.89347  0.73006  1.0000
  O   O4        1.0  0.30238  0.10655  0.26994  1.0000
  O   O5        1.0  0.53892  0.19470  0.89406  1.0000
  O   O6        1.0  0.46117  0.80537  0.10596  1.0000
  O   O7        1.0  0.19004  0.48191  0.87542  1.0000
  O   O8        1.0  0.80998  0.51807  0.12459  1.0000
  O   O9        1.0  0.91185  0.49865  0.70130  1.0000
  O   O10       1.0  0.08803  0.50129  0.29875  1.0000
