data_image0
_chemical_formula_structural       Mn4H28C32N4O24
_chemical_formula_sum              "Mn4 H28 C32 N4 O24"
_cell_length_a       7.98787
_cell_length_b       10.2327
_cell_length_c       10.5758
_cell_angle_alpha    89.9941
_cell_angle_beta     93.9658
_cell_angle_gamma    89.9996

_space_group_name_H-M_alt    "P 1"
_space_group_IT_number       1

loop_
  _space_group_symop_operation_xyz
  'x, y, z'

loop_
  _atom_site_type_symbol
  _atom_site_label
  _atom_site_symmetry_multiplicity
  _atom_site_fract_x
  _atom_site_fract_y
  _atom_site_fract_z
  _atom_site_occupancy
  Mn  Mn1       1.0  0.91151  0.17460  0.14041  1.0000
  Mn  Mn2       1.0  0.08868  0.67464  0.35945  1.0000
  Mn  Mn3       1.0  0.08842  0.82548  0.85950  1.0000
  Mn  Mn4       1.0  0.91125  0.32531  0.64044  1.0000
  H   H1        1.0  0.48805  0.97344  0.87050  1.0000
  H   H2        1.0  0.51140  0.47323  0.62919  1.0000
  H   H3        1.0  0.51176  0.02665  0.12944  1.0000
  H   H4        1.0  0.48838  0.52672  0.37076  1.0000
  H   H5        1.0  0.57693  0.12812  0.83930  1.0000
  H   H6        1.0  0.42263  0.62797  0.66022  1.0000
  H   H7        1.0  0.42299  0.87192  0.16057  1.0000
  H   H8        1.0  0.57720  0.37201  0.33966  1.0000
  H   H9        1.0  0.52914  0.80014  0.74147  1.0000
  H   H10       1.0  0.47049  0.30012  0.75846  1.0000
  H   H11       1.0  0.47067  0.19985  0.25856  1.0000
  H   H12       1.0  0.52926  0.69991  0.24154  1.0000
  H   H13       1.0  0.59201  0.71597  0.52610  1.0000
  H   H14       1.0  0.40795  0.21611  0.97399  1.0000
  H   H15       1.0  0.40789  0.28389  0.47397  1.0000
  H   H16       1.0  0.59194  0.78400  0.02605  1.0000
  H   H17       1.0  0.74049  0.86460  0.38269  1.0000
  H   H18       1.0  0.25973  0.36487  0.11739  1.0000
  H   H19       1.0  0.25961  0.13516  0.61742  1.0000
  H   H20       1.0  0.74038  0.63536  0.88270  1.0000
  H   H21       1.0  0.02822  0.29458  0.34734  1.0000
  H   H22       1.0  0.97251  0.79479  0.15264  1.0000
  H   H23       1.0  0.97231  0.70506  0.65265  1.0000
  H   H24       1.0  0.02805  0.20558  0.84734  1.0000
  H   H25       1.0  0.08193  0.40397  0.24811  1.0000
  H   H26       1.0  0.91821  0.90392  0.25187  1.0000
  H   H27       1.0  0.91788  0.59591  0.75183  1.0000
  H   H28       1.0  0.08161  0.09620  0.74807  1.0000
  C   C1        1.0  0.75268  0.99522  0.93045  1.0000
  C   C2        1.0  0.24678  0.49510  0.56944  1.0000
  C   C3        1.0  0.24707  0.00476  0.06954  1.0000
  C   C4        1.0  0.75296  0.50491  0.43053  1.0000
  C   C5        1.0  0.59965  0.02300  0.83819  1.0000
  C   C6        1.0  0.39993  0.52287  0.66154  1.0000
  C   C7        1.0  0.40022  0.97703  0.16174  1.0000
  C   C8        1.0  0.59988  0.47711  0.33839  1.0000
  C   C9        1.0  0.58984  0.85941  0.67223  1.0000
  C   C10       1.0  0.40993  0.35946  0.82770  1.0000
  C   C11       1.0  0.41004  0.14051  0.32779  1.0000
  C   C12       1.0  0.58993  0.64062  0.17231  1.0000
  C   C13       1.0  0.62492  0.81506  0.55449  1.0000
  C   C14       1.0  0.37505  0.31518  0.94553  1.0000
  C   C15       1.0  0.37504  0.18481  0.44557  1.0000
  C   C16       1.0  0.62488  0.68494  0.05452  1.0000
  C   C17       1.0  0.70740  0.89909  0.47504  1.0000
  C   C18       1.0  0.29276  0.39930  0.02498  1.0000
  C   C19       1.0  0.29267  0.10072  0.52503  1.0000
  C   C20       1.0  0.70731  0.60089  0.97509  1.0000
  C   C21       1.0  0.75009  0.02602  0.51114  1.0000
  C   C22       1.0  0.25019  0.52624  0.98879  1.0000
  C   C23       1.0  0.25009  0.97376  0.48891  1.0000
  C   C24       1.0  0.74998  0.47397  0.01127  1.0000
  C   C25       1.0  0.69972  0.07485  0.63028  1.0000
  C   C26       1.0  0.30031  0.57499  0.86954  1.0000
  C   C27       1.0  0.30036  0.92502  0.36971  1.0000
  C   C28       1.0  0.69974  0.42514  0.13045  1.0000
  C   C29       1.0  0.84743  0.10847  0.42503  1.0000
  C   C30       1.0  0.15316  0.60881  0.07496  1.0000
  C   C31       1.0  0.15292  0.89119  0.57503  1.0000
  C   C32       1.0  0.84721  0.39151  0.92513  1.0000
  N   N1        1.0  0.62596  0.98364  0.70860  1.0000
  N   N2        1.0  0.37379  0.48365  0.79121  1.0000
  N   N3        1.0  0.37397  0.01630  0.29137  1.0000
  N   N4        1.0  0.62609  0.51641  0.20876  1.0000
  O   O1        1.0  0.87206  0.93032  0.89052  1.0000
  O   O2        1.0  0.12710  0.43086  0.60976  1.0000
  O   O3        1.0  0.12744  0.06917  0.10972  1.0000
  O   O4        1.0  0.87239  0.56959  0.39040  1.0000
  O   O5        1.0  0.74244  0.04046  0.04150  1.0000
  O   O6        1.0  0.25717  0.53971  0.45813  1.0000
  O   O7        1.0  0.25742  0.95997  0.95833  1.0000
  O   O8        1.0  0.74266  0.45993  0.54172  1.0000
  O   O9        1.0  0.06959  0.30930  0.26208  1.0000
  O   O10       1.0  0.93062  0.80927  0.23779  1.0000
  O   O11       1.0  0.93046  0.69057  0.73780  1.0000
  O   O12       1.0  0.06942  0.19087  0.76207  1.0000
  O   O13       1.0  0.71124  0.19144  0.66989  1.0000
  O   O14       1.0  0.28875  0.69153  0.82980  1.0000
  O   O15       1.0  0.28884  0.80846  0.33002  1.0000
  O   O16       1.0  0.71132  0.30857  0.17014  1.0000
  O   O17       1.0  0.91627  0.21465  0.46545  1.0000
  O   O18       1.0  0.08490  0.71528  0.03470  1.0000
  O   O19       1.0  0.08494  0.78462  0.53482  1.0000
  O   O20       1.0  0.91629  0.28542  0.96560  1.0000
  O   O21       1.0  0.86107  0.06618  0.31242  1.0000
  O   O22       1.0  0.13912  0.56636  0.18747  1.0000
  O   O23       1.0  0.13853  0.93375  0.68746  1.0000
  O   O24       1.0  0.86054  0.43369  0.81245  1.0000
