data_image0
_chemical_formula_structural       CoH14C12N8O2
_chemical_formula_sum              "Co1 H14 C12 N8 O2"
_cell_length_a       6.9641
_cell_length_b       7.03827
_cell_length_c       8.43413
_cell_angle_alpha    114.825
_cell_angle_beta     108.976
_cell_angle_gamma    89.9213

_space_group_name_H-M_alt    "P 1"
_space_group_IT_number       1

loop_
  _space_group_symop_operation_xyz
  'x, y, z'

loop_
  _atom_site_type_symbol
  _atom_site_label
  _atom_site_symmetry_multiplicity
  _atom_site_fract_x
  _atom_site_fract_y
  _atom_site_fract_z
  _atom_site_occupancy
  Co  Co1       1.0  0.50000  1.00000  1.00000  1.0000
  H   H1        1.0  0.08559  0.66617  0.33171  1.0000
  H   H2        1.0  0.91440  0.33383  0.66829  1.0000
  H   H3        1.0  0.97997  0.77500  0.79752  1.0000
  H   H4        1.0  0.98016  0.02297  0.79772  1.0000
  H   H5        1.0  0.02003  0.22500  0.20248  1.0000
  H   H6        1.0  0.01984  0.97703  0.20229  1.0000
  H   H7        1.0  0.64935  0.90186  0.55510  1.0000
  H   H8        1.0  0.64989  0.65227  0.55417  1.0000
  H   H9        1.0  0.35065  0.09815  0.44490  1.0000
  H   H10       1.0  0.35011  0.34774  0.44583  1.0000
  H   H11       1.0  0.72022  0.51241  0.27673  1.0000
  H   H12       1.0  0.72098  0.76686  0.27837  1.0000
  H   H13       1.0  0.27977  0.48760  0.72327  1.0000
  H   H14       1.0  0.27901  0.23314  0.72163  1.0000
  C   C1        1.0  0.10851  0.80421  0.60910  1.0000
  C   C2        1.0  0.89149  0.19579  0.39090  1.0000
  C   C3        1.0  0.95245  0.85251  0.70505  1.0000
  C   C4        1.0  0.04755  0.14749  0.29495  1.0000
  C   C5        1.0  0.74052  0.77345  0.54698  1.0000
  C   C6        1.0  0.25947  0.22656  0.45302  1.0000
  C   C7        1.0  0.78390  0.68152  0.36217  1.0000
  C   C8        1.0  0.21610  0.31848  0.63783  1.0000
  C   C9        1.0  0.69981  0.29019  0.89983  1.0000
  C   C10       1.0  0.69993  0.60844  0.89976  1.0000
  C   C11       1.0  0.30020  0.70981  0.10018  1.0000
  C   C12       1.0  0.30008  0.39154  0.10023  1.0000
  N   N1        1.0  0.00777  0.71130  0.42280  1.0000
  N   N2        1.0  0.99222  0.28871  0.57720  1.0000
  N   N3        1.0  0.65376  0.16491  0.94421  1.0000
  N   N4        1.0  0.65394  0.77855  0.94407  1.0000
  N   N5        1.0  0.34624  0.83508  0.05580  1.0000
  N   N6        1.0  0.34607  0.22144  0.05593  1.0000
  N   N7        1.0  0.75860  0.42281  0.84738  1.0000
  N   N8        1.0  0.24141  0.57719  0.15263  1.0000
  O   O1        1.0  0.30044  0.84189  0.68519  1.0000
  O   O2        1.0  0.69955  0.15810  0.31480  1.0000
