data_image0
_chemical_formula_structural       Cd2H30C40N10O14
_chemical_formula_sum              "Cd2 H30 C40 N10 O14"
_cell_length_a       10.2411
_cell_length_b       10.7153
_cell_length_c       11.6604
_cell_angle_alpha    115.698
_cell_angle_beta     104.019
_cell_angle_gamma    102.289

_space_group_name_H-M_alt    "P 1"
_space_group_IT_number       1

loop_
  _space_group_symop_operation_xyz
  'x, y, z'

loop_
  _atom_site_type_symbol
  _atom_site_label
  _atom_site_symmetry_multiplicity
  _atom_site_fract_x
  _atom_site_fract_y
  _atom_site_fract_z
  _atom_site_occupancy
  Cd  Cd1       1.0  0.90170  0.23419  0.18712  1.0000
  Cd  Cd2       1.0  0.09830  0.76580  0.81288  1.0000
  H   H1        1.0  0.80887  0.90984  0.99286  1.0000
  H   H2        1.0  0.19112  0.09016  0.00714  1.0000
  H   H3        1.0  0.70113  0.96653  0.06463  1.0000
  H   H4        1.0  0.29886  0.03347  0.93537  1.0000
  H   H5        1.0  0.40310  0.20103  0.18347  1.0000
  H   H6        1.0  0.59689  0.79897  0.81653  1.0000
  H   H7        1.0  0.74175  0.35119  0.56575  1.0000
  H   H8        1.0  0.25825  0.64881  0.43424  1.0000
  H   H9        1.0  0.32598  0.37913  0.55974  1.0000
  H   H10       1.0  0.67402  0.62088  0.44026  1.0000
  H   H11       1.0  0.00612  0.61761  0.43352  1.0000
  H   H12       1.0  0.99389  0.38239  0.56649  1.0000
  H   H13       1.0  0.73283  0.67322  0.13467  1.0000
  H   H14       1.0  0.26719  0.32679  0.86533  1.0000
  H   H15       1.0  0.99471  0.82537  0.58682  1.0000
  H   H16       1.0  0.00531  0.17463  0.41318  1.0000
  H   H17       1.0  0.89535  0.90653  0.24885  1.0000
  H   H18       1.0  0.10468  0.09347  0.75115  1.0000
  H   H19       1.0  0.71047  0.38052  0.02057  1.0000
  H   H20       1.0  0.28954  0.61948  0.97944  1.0000
  H   H21       1.0  0.04787  0.32417  0.99456  1.0000
  H   H22       1.0  0.95213  0.67583  0.00544  1.0000
  H   H23       1.0  0.61756  0.04585  0.86444  1.0000
  H   H24       1.0  0.38243  0.95415  0.13555  1.0000
  H   H25       1.0  0.89091  0.26173  0.73216  1.0000
  H   H26       1.0  0.10909  0.73827  0.26784  1.0000
  H   H27       1.0  0.75147  0.01958  0.51816  1.0000
  H   H28       1.0  0.24852  0.98043  0.48184  1.0000
  H   H29       1.0  0.44372  0.09746  0.71125  1.0000
  H   H30       1.0  0.55628  0.90254  0.28874  1.0000
  C   C1        1.0  0.67392  0.21624  0.28629  1.0000
  C   C2        1.0  0.32607  0.78375  0.71371  1.0000
  C   C3        1.0  0.19668  0.26213  0.28016  1.0000
  C   C4        1.0  0.80332  0.73788  0.71984  1.0000
  C   C5        1.0  0.34718  0.28622  0.36195  1.0000
  C   C6        1.0  0.65282  0.71378  0.63805  1.0000
  C   C7        1.0  0.43975  0.24636  0.29394  1.0000
  C   C8        1.0  0.56024  0.75364  0.70606  1.0000
  C   C9        1.0  0.58030  0.26568  0.36505  1.0000
  C   C10       1.0  0.41970  0.73432  0.63494  1.0000
  C   C11       1.0  0.63115  0.33020  0.50779  1.0000
  C   C12       1.0  0.36885  0.66980  0.49221  1.0000
  C   C13       1.0  0.53761  0.36799  0.57464  1.0000
  C   C14       1.0  0.46239  0.63200  0.42536  1.0000
  C   C15       1.0  0.39597  0.34695  0.50454  1.0000
  C   C16       1.0  0.60403  0.65305  0.49546  1.0000
  C   C17       1.0  0.92765  0.58961  0.33622  1.0000
  C   C18       1.0  0.07237  0.41039  0.66378  1.0000
  C   C19       1.0  0.78643  0.61818  0.17832  1.0000
  C   C20       1.0  0.21358  0.38182  0.82169  1.0000
  C   C21       1.0  0.93841  0.84764  0.40770  1.0000
  C   C22       1.0  0.06160  0.15236  0.59231  1.0000
  C   C23       1.0  0.99843  0.90182  0.54881  1.0000
  C   C24       1.0  0.00158  0.09817  0.45119  1.0000
  C   C25       1.0  0.93952  0.94579  0.35843  1.0000
  C   C26       1.0  0.06050  0.05420  0.64157  1.0000
  C   C27       1.0  0.77620  0.47315  0.12355  1.0000
  C   C28       1.0  0.22381  0.52685  0.87646  1.0000
  C   C29       1.0  0.93605  0.25512  0.92726  1.0000
  C   C30       1.0  0.06394  0.74488  0.07274  1.0000
  C   C31       1.0  0.71476  0.11230  0.86559  1.0000
  C   C32       1.0  0.28523  0.88770  0.13441  1.0000
  C   C33       1.0  0.86145  0.22372  0.79752  1.0000
  C   C34       1.0  0.13855  0.77627  0.20248  1.0000
  C   C35       1.0  0.60914  0.06573  0.62823  1.0000
  C   C36       1.0  0.39085  0.93427  0.37176  1.0000
  C   C37       1.0  0.64160  0.01236  0.51001  1.0000
  C   C38       1.0  0.35839  0.98764  0.48999  1.0000
  C   C39       1.0  0.46778  0.05343  0.61853  1.0000
  C   C40       1.0  0.53222  0.94657  0.38146  1.0000
  N   N1        1.0  0.84356  0.18419  0.96731  1.0000
  N   N2        1.0  0.15643  0.81581  0.03269  1.0000
  N   N3        1.0  0.86475  0.45687  0.22223  1.0000
  N   N4        1.0  0.13526  0.54313  0.77778  1.0000
  N   N5        1.0  0.88258  0.69199  0.31395  1.0000
  N   N6        1.0  0.11744  0.30802  0.68606  1.0000
  N   N7        1.0  0.72143  0.13253  0.75873  1.0000
  N   N8        1.0  0.27857  0.86747  0.24127  1.0000
  N   N9        1.0  0.59170  0.43414  0.72501  1.0000
  N   N10       1.0  0.40830  0.56585  0.27498  1.0000
  O   O1        1.0  0.14903  0.18984  0.15018  1.0000
  O   O2        1.0  0.85096  0.81016  0.84982  1.0000
  O   O3        1.0  0.12267  0.31741  0.34928  1.0000
  O   O4        1.0  0.87733  0.68259  0.65072  1.0000
  O   O5        1.0  0.50819  0.46841  0.78417  1.0000
  O   O6        1.0  0.49180  0.53159  0.21583  1.0000
  O   O7        1.0  0.71844  0.45209  0.78496  1.0000
  O   O8        1.0  0.28157  0.54792  0.21503  1.0000
  O   O9        1.0  0.79899  0.96428  0.08278  1.0000
  O   O10       1.0  0.20100  0.03571  0.91722  1.0000
  O   O11       1.0  0.80897  0.26148  0.35647  1.0000
  O   O12       1.0  0.19102  0.73851  0.64352  1.0000
  O   O13       1.0  0.61448  0.13501  0.15641  1.0000
  O   O14       1.0  0.38551  0.86500  0.84358  1.0000
