data_image0
_chemical_formula_structural       Cd2H24C30N6O14
_chemical_formula_sum              "Cd2 H24 C30 N6 O14"
_cell_length_a       7.43723
_cell_length_b       9.9185
_cell_length_c       11.5831
_cell_angle_alpha    90.5556
_cell_angle_beta     93.2727
_cell_angle_gamma    106.887

_space_group_name_H-M_alt    "P 1"
_space_group_IT_number       1

loop_
  _space_group_symop_operation_xyz
  'x, y, z'

loop_
  _atom_site_type_symbol
  _atom_site_label
  _atom_site_symmetry_multiplicity
  _atom_site_fract_x
  _atom_site_fract_y
  _atom_site_fract_z
  _atom_site_occupancy
  Cd  Cd1       1.0  0.98285  0.28480  0.45463  1.0000
  Cd  Cd2       1.0  0.01715  0.71520  0.54537  1.0000
  H   H1        1.0  0.23507  0.09872  0.44608  1.0000
  H   H2        1.0  0.76494  0.90127  0.55392  1.0000
  H   H3        1.0  0.30440  0.22867  0.36085  1.0000
  H   H4        1.0  0.69561  0.77133  0.63915  1.0000
  H   H5        1.0  0.47357  0.80896  0.46883  1.0000
  H   H6        1.0  0.52642  0.19104  0.53117  1.0000
  H   H7        1.0  0.62790  0.99037  0.13897  1.0000
  H   H8        1.0  0.37210  0.00963  0.86103  1.0000
  H   H9        1.0  0.25394  0.56797  0.15585  1.0000
  H   H10       1.0  0.74606  0.43202  0.84415  1.0000
  H   H11       1.0  0.89717  0.06700  0.68496  1.0000
  H   H12       1.0  0.10285  0.93300  0.31504  1.0000
  H   H13       1.0  0.25927  0.48263  0.68036  1.0000
  H   H14       1.0  0.74073  0.51738  0.31965  1.0000
  H   H15       1.0  0.26350  0.38819  0.90413  1.0000
  H   H16       1.0  0.73649  0.61182  0.09588  1.0000
  H   H17       1.0  0.19357  0.35023  0.09176  1.0000
  H   H18       1.0  0.80642  0.64977  0.90824  1.0000
  H   H19       1.0  0.96874  0.29494  0.14796  1.0000
  H   H20       1.0  0.03125  0.70506  0.85204  1.0000
  H   H21       1.0  0.99196  0.35366  0.00350  1.0000
  H   H22       1.0  0.00803  0.64634  0.99650  1.0000
  H   H23       1.0  0.01908  0.92893  0.79790  1.0000
  H   H24       1.0  0.98093  0.07107  0.20210  1.0000
  C   C1        1.0  0.69966  0.04160  0.37172  1.0000
  C   C2        1.0  0.30034  0.95840  0.62828  1.0000
  C   C3        1.0  0.23746  0.55968  0.39000  1.0000
  C   C4        1.0  0.76254  0.44032  0.61001  1.0000
  C   C5        1.0  0.34872  0.67814  0.31979  1.0000
  C   C6        1.0  0.65128  0.32186  0.68021  1.0000
  C   C7        1.0  0.46476  0.80126  0.37488  1.0000
  C   C8        1.0  0.53524  0.19874  0.62512  1.0000
  C   C9        1.0  0.56665  0.91391  0.31099  1.0000
  C   C10       1.0  0.43335  0.08609  0.68901  1.0000
  C   C11       1.0  0.55164  0.90359  0.19015  1.0000
  C   C12       1.0  0.44836  0.09641  0.80985  1.0000
  C   C13       1.0  0.44182  0.77754  0.13685  1.0000
  C   C14       1.0  0.55817  0.22246  0.86315  1.0000
  C   C15       1.0  0.33867  0.66504  0.19931  1.0000
  C   C16       1.0  0.66133  0.33496  0.80068  1.0000
  C   C17       1.0  0.99603  0.16746  0.71217  1.0000
  C   C18       1.0  0.00398  0.83254  0.28784  1.0000
  C   C19       1.0  0.18555  0.38198  0.71497  1.0000
  C   C20       1.0  0.81445  0.61803  0.28503  1.0000
  C   C21       1.0  0.18698  0.33632  0.82617  1.0000
  C   C22       1.0  0.81303  0.66368  0.17383  1.0000
  C   C23       1.0  0.03139  0.10157  0.91563  1.0000
  C   C24       1.0  0.96861  0.89842  0.08436  1.0000
  C   C25       1.0  0.02295  0.14487  0.03066  1.0000
  C   C26       1.0  0.97705  0.85513  0.96934  1.0000
  C   C27       1.0  0.04444  0.29388  0.06973  1.0000
  C   C28       1.0  0.95555  0.70612  0.93027  1.0000
  C   C29       1.0  0.00845  0.96011  0.88703  1.0000
  C   C30       1.0  0.99155  0.03989  0.11296  1.0000
  N   N1        1.0  0.06597  0.27576  0.64497  1.0000
  N   N2        1.0  0.93403  0.72424  0.35504  1.0000
  N   N3        1.0  0.06579  0.19952  0.82383  1.0000
  N   N4        1.0  0.93421  0.80048  0.17617  1.0000
  N   N5        1.0  0.44749  0.75802  0.01104  1.0000
  N   N6        1.0  0.55250  0.24198  0.98896  1.0000
  O   O1        1.0  0.16214  0.44188  0.33671  1.0000
  O   O2        1.0  0.83787  0.55811  0.66330  1.0000
  O   O3        1.0  0.19350  0.16119  0.38860  1.0000
  O   O4        1.0  0.80651  0.83881  0.61139  1.0000
  O   O5        1.0  0.22338  0.58231  0.49705  1.0000
  O   O6        1.0  0.77661  0.41770  0.50296  1.0000
  O   O7        1.0  0.76152  0.15303  0.31495  1.0000
  O   O8        1.0  0.23848  0.84698  0.68505  1.0000
  O   O9        1.0  0.36265  0.64001  0.96704  1.0000
  O   O10       1.0  0.63733  0.35999  0.03295  1.0000
  O   O11       1.0  0.54183  0.85796  0.95629  1.0000
  O   O12       1.0  0.45817  0.14203  0.04370  1.0000
  O   O13       1.0  0.75035  0.03323  0.47814  1.0000
  O   O14       1.0  0.24966  0.96677  0.52186  1.0000
