data_image0
_chemical_formula_structural       MnH20C16N8O6
_chemical_formula_sum              "Mn1 H20 C16 N8 O6"
_cell_length_a       5.29627
_cell_length_b       9.57952
_cell_length_c       10.5412
_cell_angle_alpha    68.4555
_cell_angle_beta     75.1199
_cell_angle_gamma    82.6438

_space_group_name_H-M_alt    "P 1"
_space_group_IT_number       1

loop_
  _space_group_symop_operation_xyz
  'x, y, z'

loop_
  _atom_site_type_symbol
  _atom_site_label
  _atom_site_symmetry_multiplicity
  _atom_site_fract_x
  _atom_site_fract_y
  _atom_site_fract_z
  _atom_site_occupancy
  Mn  Mn1       1.0  0.50000  0.00000  0.50000  1.0000
  H   H1        1.0  0.27506  0.96467  0.32460  1.0000
  H   H2        1.0  0.72495  0.03533  0.67540  1.0000
  H   H3        1.0  0.05941  0.87425  0.46716  1.0000
  H   H4        1.0  0.94058  0.12576  0.53284  1.0000
  H   H5        1.0  0.02412  0.30660  0.13614  1.0000
  H   H6        1.0  0.97589  0.69340  0.86386  1.0000
  H   H7        1.0  0.36393  0.41581  0.91495  1.0000
  H   H8        1.0  0.63606  0.58419  0.08504  1.0000
  H   H9        1.0  0.07707  0.20088  0.70609  1.0000
  H   H10       1.0  0.92293  0.79912  0.29391  1.0000
  H   H11       1.0  0.71140  0.09026  0.91649  1.0000
  H   H12       1.0  0.28860  0.90973  0.08352  1.0000
  H   H13       1.0  0.52548  0.25945  0.65498  1.0000
  H   H14       1.0  0.47453  0.74056  0.34502  1.0000
  H   H15       1.0  0.60133  0.39184  0.72197  1.0000
  H   H16       1.0  0.39867  0.60816  0.27803  1.0000
  H   H17       1.0  0.32318  0.58827  0.58822  1.0000
  H   H18       1.0  0.67682  0.41173  0.41178  1.0000
  H   H19       1.0  0.21489  0.45600  0.53377  1.0000
  H   H20       1.0  0.78511  0.54400  0.46623  1.0000
  C   C1        1.0  0.64984  0.10635  0.17640  1.0000
  C   C2        1.0  0.35016  0.89365  0.82360  1.0000
  C   C3        1.0  0.83966  0.18979  0.04344  1.0000
  C   C4        1.0  0.16035  0.81021  0.95656  1.0000
  C   C5        1.0  0.02185  0.28388  0.04259  1.0000
  C   C6        1.0  0.97816  0.71611  0.95741  1.0000
  C   C7        1.0  0.21307  0.34373  0.92259  1.0000
  C   C8        1.0  0.78694  0.65627  0.07741  1.0000
  C   C9        1.0  0.04858  0.22216  0.80370  1.0000
  C   C10       1.0  0.95143  0.77784  0.19630  1.0000
  C   C11       1.0  0.85051  0.16278  0.91994  1.0000
  C   C12       1.0  0.14950  0.83722  0.08007  1.0000
  C   C13       1.0  0.45116  0.35748  0.68590  1.0000
  C   C14       1.0  0.54884  0.64252  0.31410  1.0000
  C   C15       1.0  0.38148  0.48589  0.56199  1.0000
  C   C16       1.0  0.61852  0.51411  0.43801  1.0000
  N   N1        1.0  0.75151  0.79658  0.54016  1.0000
  N   N2        1.0  0.24848  0.20342  0.45983  1.0000
  N   N3        1.0  0.73683  0.69696  0.65151  1.0000
  N   N4        1.0  0.26316  0.30303  0.34849  1.0000
  N   N5        1.0  0.72281  0.59861  0.75970  1.0000
  N   N6        1.0  0.27720  0.40139  0.24030  1.0000
  N   N7        1.0  0.22834  0.30875  0.80732  1.0000
  N   N8        1.0  0.77167  0.69125  0.19268  1.0000
  O   O1        1.0  0.72082  0.08424  0.28969  1.0000
  O   O2        1.0  0.27918  0.91577  0.71031  1.0000
  O   O3        1.0  0.44714  0.05951  0.16497  1.0000
  O   O4        1.0  0.55286  0.94049  0.83503  1.0000
  O   O5        1.0  0.24741  0.89912  0.42600  1.0000
  O   O6        1.0  0.75258  0.10089  0.57400  1.0000
