data_image0
_chemical_formula_structural       Cu3H28C38N12Cl4
_chemical_formula_sum              "Cu3 H28 C38 N12 Cl4"
_cell_length_a       9.23408
_cell_length_b       9.77924
_cell_length_c       11.8429
_cell_angle_alpha    94.9661
_cell_angle_beta     114.305
_cell_angle_gamma    95.2154

_space_group_name_H-M_alt    "P 1"
_space_group_IT_number       1

loop_
  _space_group_symop_operation_xyz
  'x, y, z'

loop_
  _atom_site_type_symbol
  _atom_site_label
  _atom_site_symmetry_multiplicity
  _atom_site_fract_x
  _atom_site_fract_y
  _atom_site_fract_z
  _atom_site_occupancy
  Cu  Cu1       1.0  0.50000  0.50000  0.50000  1.0000
  Cu  Cu2       1.0  0.69134  0.61420  0.29929  1.0000
  Cu  Cu3       1.0  0.30865  0.38580  0.70071  1.0000
  H   H1        1.0  0.85667  0.30600  0.36964  1.0000
  H   H2        1.0  0.14334  0.69400  0.63037  1.0000
  H   H3        1.0  0.85229  0.54575  0.13414  1.0000
  H   H4        1.0  0.14771  0.45425  0.86584  1.0000
  H   H5        1.0  0.25445  0.31735  0.27753  1.0000
  H   H6        1.0  0.74555  0.68265  0.72246  1.0000
  H   H7        1.0  0.09603  0.19440  0.38353  1.0000
  H   H8        1.0  0.90399  0.80560  0.61648  1.0000
  H   H9        1.0  0.27027  0.68926  0.48103  1.0000
  H   H10       1.0  0.72972  0.31073  0.51897  1.0000
  H   H11       1.0  0.98100  0.33346  0.11619  1.0000
  H   H12       1.0  0.01901  0.66656  0.88379  1.0000
  H   H13       1.0  0.39224  0.58535  0.06167  1.0000
  H   H14       1.0  0.60776  0.41465  0.93832  1.0000
  H   H15       1.0  0.27655  0.03581  0.41081  1.0000
  H   H16       1.0  0.72345  0.96418  0.58919  1.0000
  H   H17       1.0  0.30637  0.85990  0.38994  1.0000
  H   H18       1.0  0.69363  0.14009  0.61006  1.0000
  H   H19       1.0  0.57291  0.90572  0.30252  1.0000
  H   H20       1.0  0.42709  0.09428  0.69750  1.0000
  H   H21       1.0  0.31987  0.67428  0.23003  1.0000
  H   H22       1.0  0.68013  0.32571  0.76997  1.0000
  H   H23       1.0  0.60111  0.16596  0.32967  1.0000
  H   H24       1.0  0.39890  0.83404  0.67035  1.0000
  H   H25       1.0  0.38384  0.72412  0.89379  1.0000
  H   H26       1.0  0.61617  0.27588  0.10621  1.0000
  H   H27       1.0  0.29608  0.95925  0.88855  1.0000
  H   H28       1.0  0.70394  0.04077  0.11146  1.0000
  C   C1        1.0  0.84940  0.19336  0.35905  1.0000
  C   C2        1.0  0.15061  0.80664  0.64096  1.0000
  C   C3        1.0  0.05264  0.63607  0.30815  1.0000
  C   C4        1.0  0.94736  0.36393  0.69184  1.0000
  C   C5        1.0  0.96955  0.53278  0.20499  1.0000
  C   C6        1.0  0.03045  0.46723  0.79500  1.0000
  C   C7        1.0  0.19364  0.40577  0.28433  1.0000
  C   C8        1.0  0.80635  0.59423  0.71566  1.0000
  C   C9        1.0  0.98252  0.13262  0.36503  1.0000
  C   C10       1.0  0.01750  0.86738  0.63498  1.0000
  C   C11       1.0  0.96288  0.98803  0.34639  1.0000
  C   C12       1.0  0.03713  0.01197  0.65361  1.0000
  C   C13       1.0  0.20260  0.61551  0.39705  1.0000
  C   C14       1.0  0.79739  0.38449  0.60295  1.0000
  C   C15       1.0  0.81724  0.90658  0.32432  1.0000
  C   C16       1.0  0.18276  0.09342  0.67569  1.0000
  C   C17       1.0  0.04101  0.41619  0.19422  1.0000
  C   C18       1.0  0.95898  0.58382  0.80577  1.0000
  C   C19       1.0  0.35231  0.68709  0.06045  1.0000
  C   C20       1.0  0.64769  0.31292  0.93954  1.0000
  C   C21       1.0  0.22609  0.93609  0.34992  1.0000
  C   C22       1.0  0.77391  0.06391  0.65008  1.0000
  C   C23       1.0  0.68494  0.96890  0.31986  1.0000
  C   C24       1.0  0.31506  0.03111  0.68015  1.0000
  C   C25       1.0  0.25494  0.94687  0.05529  1.0000
  C   C26       1.0  0.74506  0.05313  0.94472  1.0000
  C   C27       1.0  0.26277  0.86740  0.15143  1.0000
  C   C28       1.0  0.73722  0.13259  0.84857  1.0000
  C   C29       1.0  0.98563  0.76324  0.32137  1.0000
  C   C30       1.0  0.01438  0.23676  0.67863  1.0000
  C   C31       1.0  0.30980  0.73497  0.15514  1.0000
  C   C32       1.0  0.69019  0.26502  0.84485  1.0000
  C   C33       1.0  0.70285  0.11306  0.33646  1.0000
  C   C34       1.0  0.29716  0.88694  0.66355  1.0000
  C   C35       1.0  0.34791  0.76660  0.96506  1.0000
  C   C36       1.0  0.65211  0.23341  0.03494  1.0000
  C   C37       1.0  0.29862  0.89679  0.96086  1.0000
  C   C38       1.0  0.70138  0.10322  0.03915  1.0000
  N   N1        1.0  0.27215  0.50423  0.38375  1.0000
  N   N2        1.0  0.72784  0.49577  0.61625  1.0000
  N   N3        1.0  0.19103  0.07667  0.18202  1.0000
  N   N4        1.0  0.80898  0.92334  0.81799  1.0000
  N   N5        1.0  0.06764  0.89491  0.34496  1.0000
  N   N6        1.0  0.93236  0.10509  0.65505  1.0000
  N   N7        1.0  0.22295  0.95337  0.22898  1.0000
  N   N8        1.0  0.77704  0.04662  0.77102  1.0000
  N   N9        1.0  0.20857  0.07306  0.07870  1.0000
  N   N10       1.0  0.79144  0.92695  0.92132  1.0000
  N   N11       1.0  0.83551  0.76712  0.30974  1.0000
  N   N12       1.0  0.16449  0.23288  0.69026  1.0000
  Cl  Cl1       1.0  0.54797  0.42465  0.27519  1.0000
  Cl  Cl2       1.0  0.45202  0.57534  0.72480  1.0000
  Cl  Cl3       1.0  0.56660  0.73264  0.48189  1.0000
  Cl  Cl4       1.0  0.43340  0.26735  0.51810  1.0000
