data_image0
_chemical_formula_structural       Cu4H32C36N16O4
_chemical_formula_sum              "Cu4 H32 C36 N16 O4"
_cell_length_a       7.58162
_cell_length_b       8.3383
_cell_length_c       15.4032
_cell_angle_alpha    89.9997
_cell_angle_beta     89.9985
_cell_angle_gamma    97.3112

_space_group_name_H-M_alt    "P 1"
_space_group_IT_number       1

loop_
  _space_group_symop_operation_xyz
  'x, y, z'

loop_
  _atom_site_type_symbol
  _atom_site_label
  _atom_site_symmetry_multiplicity
  _atom_site_fract_x
  _atom_site_fract_y
  _atom_site_fract_z
  _atom_site_occupancy
  Cu  Cu1       1.0  0.92277  0.79879  0.07438  1.0000
  Cu  Cu2       1.0  0.07720  0.20123  0.57438  1.0000
  Cu  Cu3       1.0  0.58769  0.70237  0.96680  1.0000
  Cu  Cu4       1.0  0.41228  0.29767  0.46679  1.0000
  H   H1        1.0  0.29614  0.94779  0.12493  1.0000
  H   H2        1.0  0.70383  0.05216  0.62493  1.0000
  H   H3        1.0  0.52448  0.15450  0.05717  1.0000
  H   H4        1.0  0.47552  0.84546  0.55716  1.0000
  H   H5        1.0  0.45109  0.27944  0.91503  1.0000
  H   H6        1.0  0.54894  0.72056  0.41501  1.0000
  H   H7        1.0  0.16625  0.17594  0.84112  1.0000
  H   H8        1.0  0.83379  0.82409  0.34110  1.0000
  H   H9        1.0  0.82172  0.03033  0.89830  1.0000
  H   H10       1.0  0.17834  0.96971  0.39835  1.0000
  H   H11       1.0  0.80822  0.81628  0.78587  1.0000
  H   H12       1.0  0.19185  0.18365  0.28586  1.0000
  H   H13       1.0  0.02421  0.77220  0.81529  1.0000
  H   H14       1.0  0.97584  0.22773  0.31525  1.0000
  H   H15       1.0  0.99612  0.96236  0.76720  1.0000
  H   H16       1.0  0.00399  0.03754  0.26720  1.0000
  H   H17       1.0  0.19931  0.60905  0.92519  1.0000
  H   H18       1.0  0.80067  0.39095  0.42518  1.0000
  H   H19       1.0  0.95058  0.42604  0.99486  1.0000
  H   H20       1.0  0.04941  0.57393  0.49486  1.0000
  H   H21       1.0  0.01006  0.29443  0.13703  1.0000
  H   H22       1.0  0.98993  0.70553  0.63704  1.0000
  H   H23       1.0  0.30707  0.36799  0.20809  1.0000
  H   H24       1.0  0.69291  0.63201  0.70809  1.0000
  H   H25       1.0  0.57515  0.68464  0.18575  1.0000
  H   H26       1.0  0.42478  0.31535  0.68573  1.0000
  H   H27       1.0  0.79895  0.49727  0.21760  1.0000
  H   H28       1.0  0.20102  0.50274  0.71761  1.0000
  H   H29       1.0  0.67300  0.34220  0.15621  1.0000
  H   H30       1.0  0.32700  0.65783  0.65625  1.0000
  H   H31       1.0  0.58275  0.41891  0.25332  1.0000
  H   H32       1.0  0.41723  0.58106  0.75335  1.0000
  C   C1        1.0  0.27476  0.00101  0.06178  1.0000
  C   C2        1.0  0.72523  0.99896  0.56178  1.0000
  C   C3        1.0  0.39877  0.11762  0.02443  1.0000
  C   C4        1.0  0.60124  0.88235  0.52442  1.0000
  C   C5        1.0  0.35897  0.18426  0.94486  1.0000
  C   C6        1.0  0.64105  0.81573  0.44485  1.0000
  C   C7        1.0  0.19961  0.12802  0.90392  1.0000
  C   C8        1.0  0.80042  0.87199  0.40391  1.0000
  C   C9        1.0  0.08245  0.00758  0.94349  1.0000
  C   C10       1.0  0.91756  0.99243  0.44349  1.0000
  C   C11       1.0  0.90949  0.93411  0.90282  1.0000
  C   C12       1.0  0.09054  0.06590  0.40284  1.0000
  C   C13       1.0  0.93743  0.86804  0.81190  1.0000
  C   C14       1.0  0.06264  0.13190  0.31189  1.0000
  C   C15       1.0  0.53200  0.09779  0.31520  1.0000
  C   C16       1.0  0.46800  0.90222  0.81520  1.0000
  C   C17       1.0  0.25903  0.58233  0.34491  1.0000
  C   C18       1.0  0.74099  0.41770  0.84491  1.0000
  C   C19       1.0  0.21533  0.55325  0.98821  1.0000
  C   C20       1.0  0.78465  0.44675  0.48821  1.0000
  C   C21       1.0  0.07896  0.45056  0.02693  1.0000
  C   C22       1.0  0.92103  0.54942  0.52693  1.0000
  C   C23       1.0  0.11192  0.38038  0.10655  1.0000
  C   C24       1.0  0.88807  0.61960  0.60655  1.0000
  C   C25       1.0  0.27731  0.41976  0.14580  1.0000
  C   C26       1.0  0.72267  0.58023  0.64579  1.0000
  C   C27       1.0  0.40771  0.52639  0.10460  1.0000
  C   C28       1.0  0.59225  0.47363  0.60459  1.0000
  C   C29       1.0  0.59049  0.58111  0.14220  1.0000
  C   C30       1.0  0.40948  0.41891  0.64219  1.0000
  C   C31       1.0  0.66474  0.45074  0.19562  1.0000
  C   C32       1.0  0.33524  0.54927  0.69564  1.0000
  C   C33       1.0  0.08705  0.70819  0.24758  1.0000
  C   C34       1.0  0.91294  0.29181  0.74758  1.0000
  C   C35       1.0  0.66205  0.01124  0.19076  1.0000
  C   C36       1.0  0.33799  0.98880  0.69076  1.0000
  N   N1        1.0  0.11981  0.94865  0.02234  1.0000
  N   N2        1.0  0.88019  0.05133  0.52234  1.0000
  N   N3        1.0  0.37574  0.58890  0.02577  1.0000
  N   N4        1.0  0.62423  0.41111  0.52576  1.0000
  N   N5        1.0  0.76579  0.00608  0.13384  1.0000
  N   N6        1.0  0.23427  0.99399  0.63382  1.0000
  N   N7        1.0  0.53627  0.00521  0.24855  1.0000
  N   N8        1.0  0.46375  0.99481  0.74855  1.0000
  N   N9        1.0  0.02559  0.75309  0.18305  1.0000
  N   N10       1.0  0.97437  0.24689  0.68306  1.0000
  N   N11       1.0  0.51387  0.17329  0.37859  1.0000
  N   N12       1.0  0.48610  0.82671  0.87858  1.0000
  N   N13       1.0  0.36708  0.50605  0.37291  1.0000
  N   N14       1.0  0.63293  0.49398  0.87292  1.0000
  N   N15       1.0  0.13671  0.67044  0.32374  1.0000
  N   N16       1.0  0.86331  0.32961  0.82375  1.0000
  O   O1        1.0  0.83267  0.80823  0.95774  1.0000
  O   O2        1.0  0.16728  0.19184  0.45773  1.0000
  O   O3        1.0  0.70533  0.63451  0.07228  1.0000
  O   O4        1.0  0.29462  0.36557  0.57227  1.0000
