data_image0
_chemical_formula_structural       Mg2H8C8O12
_chemical_formula_sum              "Mg2 H8 C8 O12"
_cell_length_a       5.80957
_cell_length_b       5.80954
_cell_length_c       9.36787
_cell_angle_alpha    100.779
_cell_angle_beta     100.778
_cell_angle_gamma    107.859

_space_group_name_H-M_alt    "P 1"
_space_group_IT_number       1

loop_
  _space_group_symop_operation_xyz
  'x, y, z'

loop_
  _atom_site_type_symbol
  _atom_site_label
  _atom_site_symmetry_multiplicity
  _atom_site_fract_x
  _atom_site_fract_y
  _atom_site_fract_z
  _atom_site_occupancy
  Mg  Mg1       1.0  0.85386  0.14614  0.75000  1.0000
  Mg  Mg2       1.0  0.14613  0.85385  0.25000  1.0000
  H   H1        1.0  0.57002  0.27874  0.08049  1.0000
  H   H2        1.0  0.72127  0.42999  0.41951  1.0000
  H   H3        1.0  0.42998  0.72126  0.91951  1.0000
  H   H4        1.0  0.27873  0.57002  0.58049  1.0000
  H   H5        1.0  0.93587  0.26617  0.06071  1.0000
  H   H6        1.0  0.73383  0.06413  0.43929  1.0000
  H   H7        1.0  0.06413  0.73383  0.93929  1.0000
  H   H8        1.0  0.26617  0.93587  0.56070  1.0000
  C   C1        1.0  0.40101  0.14731  0.84080  1.0000
  C   C2        1.0  0.85269  0.59901  0.65921  1.0000
  C   C3        1.0  0.59901  0.85268  0.15920  1.0000
  C   C4        1.0  0.14732  0.40099  0.34079  1.0000
  C   C5        1.0  0.56168  0.13066  0.98532  1.0000
  C   C6        1.0  0.86934  0.43832  0.51468  1.0000
  C   C7        1.0  0.43832  0.86935  0.01468  1.0000
  C   C8        1.0  0.13065  0.56168  0.48532  1.0000
  O   O1        1.0  0.46810  0.08626  0.72063  1.0000
  O   O2        1.0  0.91375  0.53190  0.77937  1.0000
  O   O3        1.0  0.53190  0.91376  0.27938  1.0000
  O   O4        1.0  0.08626  0.46810  0.22063  1.0000
  O   O5        1.0  0.21590  0.21226  0.84808  1.0000
  O   O6        1.0  0.78775  0.78409  0.65193  1.0000
  O   O7        1.0  0.78407  0.78775  0.15192  1.0000
  O   O8        1.0  0.21225  0.21591  0.34807  1.0000
  O   O9        1.0  0.80437  0.15771  0.96527  1.0000
  O   O10       1.0  0.84229  0.19563  0.53473  1.0000
  O   O11       1.0  0.19563  0.84229  0.03473  1.0000
  O   O12       1.0  0.15771  0.80436  0.46527  1.0000
