data_image0
_chemical_formula_structural       Cs4H20C28S4O24
_chemical_formula_sum              "Cs4 H20 C28 S4 O24"
_cell_length_a       7.18353
_cell_length_b       9.77109
_cell_length_c       14.3713
_cell_angle_alpha    91.6828
_cell_angle_beta     90
_cell_angle_gamma    90.0001

_space_group_name_H-M_alt    "P 1"
_space_group_IT_number       1

loop_
  _space_group_symop_operation_xyz
  'x, y, z'

loop_
  _atom_site_type_symbol
  _atom_site_label
  _atom_site_symmetry_multiplicity
  _atom_site_fract_x
  _atom_site_fract_y
  _atom_site_fract_z
  _atom_site_occupancy
  Cs  Cs1       1.0  0.81872  0.45938  0.34748  1.0000
  Cs  Cs2       1.0  0.31872  0.54062  0.15252  1.0000
  Cs  Cs3       1.0  0.18128  0.54062  0.65252  1.0000
  Cs  Cs4       1.0  0.68128  0.45938  0.84748  1.0000
  H   H1        1.0  0.81127  0.64163  0.11968  1.0000
  H   H2        1.0  0.31127  0.35836  0.38032  1.0000
  H   H3        1.0  0.18872  0.35837  0.88032  1.0000
  H   H4        1.0  0.68873  0.64163  0.61968  1.0000
  H   H5        1.0  0.06604  0.87612  0.26529  1.0000
  H   H6        1.0  0.56604  0.12388  0.23471  1.0000
  H   H7        1.0  0.93396  0.12388  0.73471  1.0000
  H   H8        1.0  0.43396  0.87612  0.76529  1.0000
  H   H9        1.0  0.05586  0.12684  0.23578  1.0000
  H   H10       1.0  0.55586  0.87316  0.26422  1.0000
  H   H11       1.0  0.94414  0.87316  0.76422  1.0000
  H   H12       1.0  0.44414  0.12684  0.73578  1.0000
  H   H13       1.0  0.70637  0.04812  0.99669  1.0000
  H   H14       1.0  0.20637  0.95188  0.50331  1.0000
  H   H15       1.0  0.29364  0.95188  0.00331  1.0000
  H   H16       1.0  0.79363  0.04812  0.49669  1.0000
  H   H17       1.0  0.50328  0.76055  0.90948  1.0000
  H   H18       1.0  0.00328  0.23945  0.59052  1.0000
  H   H19       1.0  0.49672  0.23945  0.09052  1.0000
  H   H20       1.0  0.99672  0.76055  0.40948  1.0000
  C   C1        1.0  0.78498  0.87143  0.07314  1.0000
  C   C2        1.0  0.28498  0.12857  0.42686  1.0000
  C   C3        1.0  0.21502  0.12857  0.92686  1.0000
  C   C4        1.0  0.71502  0.87143  0.57314  1.0000
  C   C5        1.0  0.88573  0.82249  0.15055  1.0000
  C   C6        1.0  0.38573  0.17751  0.34945  1.0000
  C   C7        1.0  0.11427  0.17751  0.84945  1.0000
  C   C8        1.0  0.61426  0.82249  0.65055  1.0000
  C   C9        1.0  0.98553  0.91543  0.20778  1.0000
  C   C10       1.0  0.48553  0.08457  0.29222  1.0000
  C   C11       1.0  0.01447  0.08457  0.79222  1.0000
  C   C12       1.0  0.51447  0.91543  0.70778  1.0000
  C   C13       1.0  0.97902  0.05459  0.19118  1.0000
  C   C14       1.0  0.47902  0.94541  0.30883  1.0000
  C   C15       1.0  0.02098  0.94541  0.80882  1.0000
  C   C16       1.0  0.52097  0.05459  0.69117  1.0000
  C   C17       1.0  0.87526  0.10346  0.11626  1.0000
  C   C18       1.0  0.37526  0.89654  0.38374  1.0000
  C   C19       1.0  0.12475  0.89654  0.88374  1.0000
  C   C20       1.0  0.62474  0.10346  0.61626  1.0000
  C   C21       1.0  0.78271  0.01204  0.05651  1.0000
  C   C22       1.0  0.28271  0.98796  0.44349  1.0000
  C   C23       1.0  0.21729  0.98796  0.94349  1.0000
  C   C24       1.0  0.71729  0.01204  0.55651  1.0000
  C   C25       1.0  0.67990  0.77427  0.01364  1.0000
  C   C26       1.0  0.17990  0.22573  0.48636  1.0000
  C   C27       1.0  0.32010  0.22573  0.98636  1.0000
  C   C28       1.0  0.82010  0.77427  0.51364  1.0000
  S   S1        1.0  0.84749  0.28250  0.10126  1.0000
  S   S2        1.0  0.34749  0.71750  0.39874  1.0000
  S   S3        1.0  0.15251  0.71750  0.89874  1.0000
  S   S4        1.0  0.65251  0.28250  0.60126  1.0000
  O   O1        1.0  0.88856  0.68831  0.17018  1.0000
  O   O2        1.0  0.38856  0.31169  0.32982  1.0000
  O   O3        1.0  0.11143  0.31169  0.82982  1.0000
  O   O4        1.0  0.61143  0.68831  0.67018  1.0000
  O   O5        1.0  0.85543  0.30506  0.00154  1.0000
  O   O6        1.0  0.35543  0.69493  0.49846  1.0000
  O   O7        1.0  0.14457  0.69494  0.99846  1.0000
  O   O8        1.0  0.64457  0.30506  0.50154  1.0000
  O   O9        1.0  0.65880  0.31595  0.14094  1.0000
  O   O10       1.0  0.15880  0.68405  0.35906  1.0000
  O   O11       1.0  0.34120  0.68405  0.85906  1.0000
  O   O12       1.0  0.84120  0.31595  0.64094  1.0000
  O   O13       1.0  0.99249  0.35046  0.15744  1.0000
  O   O14       1.0  0.49249  0.64954  0.34256  1.0000
  O   O15       1.0  0.00751  0.64954  0.84256  1.0000
  O   O16       1.0  0.50751  0.35046  0.65744  1.0000
  O   O17       1.0  0.59884  0.82675  0.94024  1.0000
  O   O18       1.0  0.09884  0.17325  0.55976  1.0000
  O   O19       1.0  0.40116  0.17325  0.05976  1.0000
  O   O20       1.0  0.90116  0.82675  0.44024  1.0000
  O   O21       1.0  0.66562  0.64992  0.03269  1.0000
  O   O22       1.0  0.16562  0.35008  0.46731  1.0000
  O   O23       1.0  0.33438  0.35008  0.96731  1.0000
  O   O24       1.0  0.83438  0.64992  0.53269  1.0000
