data_image0
_chemical_formula_structural       Zn2H32C42N12O12
_chemical_formula_sum              "Zn2 H32 C42 N12 O12"
_cell_length_a       9.55513
_cell_length_b       10.3656
_cell_length_c       11.6858
_cell_angle_alpha    83.2988
_cell_angle_beta     71.1332
_cell_angle_gamma    69.642

_space_group_name_H-M_alt    "P 1"
_space_group_IT_number       1

loop_
  _space_group_symop_operation_xyz
  'x, y, z'

loop_
  _atom_site_type_symbol
  _atom_site_label
  _atom_site_symmetry_multiplicity
  _atom_site_fract_x
  _atom_site_fract_y
  _atom_site_fract_z
  _atom_site_occupancy
  Zn  Zn1       1.0  0.23484  0.58991  0.65408  1.0000
  Zn  Zn2       1.0  0.76516  0.41009  0.34591  1.0000
  H   H1        1.0  0.60481  0.17367  0.67495  1.0000
  H   H2        1.0  0.39519  0.82633  0.32505  1.0000
  H   H3        1.0  0.58350  0.76949  0.64886  1.0000
  H   H4        1.0  0.41650  0.23051  0.35114  1.0000
  H   H5        1.0  0.18676  0.12910  0.64946  1.0000
  H   H6        1.0  0.81324  0.87090  0.35054  1.0000
  H   H7        1.0  0.14419  0.82231  0.44946  1.0000
  H   H8        1.0  0.85581  0.17769  0.55054  1.0000
  H   H9        1.0  0.22960  0.39495  0.45457  1.0000
  H   H10       1.0  0.77040  0.60505  0.54543  1.0000
  H   H11       1.0  0.04483  0.87124  0.25576  1.0000
  H   H12       1.0  0.95517  0.12877  0.74423  1.0000
  H   H13       1.0  0.05419  0.72566  0.18488  1.0000
  H   H14       1.0  0.94581  0.27434  0.81511  1.0000
  H   H15       1.0  0.13699  0.96973  0.05235  1.0000
  H   H16       1.0  0.86301  0.03027  0.94765  1.0000
  H   H17       1.0  0.37143  0.00048  0.89771  1.0000
  H   H18       1.0  0.62857  0.99951  0.10229  1.0000
  H   H19       1.0  0.63591  0.83263  0.88319  1.0000
  H   H20       1.0  0.36409  0.16737  0.11681  1.0000
  H   H21       1.0  0.43118  0.60150  0.17956  1.0000
  H   H22       1.0  0.56882  0.39850  0.82044  1.0000
  H   H23       1.0  0.71387  0.57534  0.11741  1.0000
  H   H24       1.0  0.28613  0.42466  0.88259  1.0000
  H   H25       1.0  0.71668  0.50179  0.98667  1.0000
  H   H26       1.0  0.28332  0.49821  0.01333  1.0000
  H   H27       1.0  0.90901  0.53112  0.78444  1.0000
  H   H28       1.0  0.09099  0.46888  0.21556  1.0000
  H   H29       1.0  0.10642  0.76856  0.91296  1.0000
  H   H30       1.0  0.89358  0.23144  0.08703  1.0000
  H   H31       1.0  0.96822  0.92774  0.65494  1.0000
  H   H32       1.0  0.03178  0.07226  0.34506  1.0000
  C   C1        1.0  0.30410  0.31907  0.67078  1.0000
  C   C2        1.0  0.69590  0.68093  0.32922  1.0000
  C   C3        1.0  0.78208  0.89448  0.64851  1.0000
  C   C4        1.0  0.21792  0.10553  0.35149  1.0000
  C   C5        1.0  0.28193  0.84922  0.64612  1.0000
  C   C6        1.0  0.71808  0.15077  0.35389  1.0000
  C   C7        1.0  0.38646  0.16644  0.66605  1.0000
  C   C8        1.0  0.61354  0.83356  0.33395  1.0000
  C   C9        1.0  0.54165  0.10732  0.66748  1.0000
  C   C10       1.0  0.45835  0.89268  0.33253  1.0000
  C   C11       1.0  0.61401  0.96425  0.65749  1.0000
  C   C12       1.0  0.38599  0.03575  0.34251  1.0000
  C   C13       1.0  0.52870  0.88065  0.65218  1.0000
  C   C14       1.0  0.47130  0.11934  0.34782  1.0000
  C   C15       1.0  0.37372  0.93875  0.65149  1.0000
  C   C16       1.0  0.62628  0.06124  0.34851  1.0000
  C   C17       1.0  0.30487  0.08171  0.65557  1.0000
  C   C18       1.0  0.69513  0.91829  0.34443  1.0000
  C   C19       1.0  0.16344  0.71831  0.42547  1.0000
  C   C20       1.0  0.83656  0.28169  0.57453  1.0000
  C   C21       1.0  0.20999  0.50071  0.42436  1.0000
  C   C22       1.0  0.79001  0.49929  0.57564  1.0000
  C   C23       1.0  0.12208  0.76893  0.22011  1.0000
  C   C24       1.0  0.87792  0.23107  0.77989  1.0000
  C   C25       1.0  0.26775  0.78117  0.12432  1.0000
  C   C26       1.0  0.73225  0.21883  0.87568  1.0000
  C   C27       1.0  0.25235  0.89343  0.04417  1.0000
  C   C28       1.0  0.74765  0.10657  0.95583  1.0000
  C   C29       1.0  0.38417  0.91124  0.95769  1.0000
  C   C30       1.0  0.61583  0.08876  0.04231  1.0000
  C   C31       1.0  0.53305  0.81703  0.94987  1.0000
  C   C32       1.0  0.46695  0.18297  0.05013  1.0000
  C   C33       1.0  0.54966  0.70505  0.02886  1.0000
  C   C34       1.0  0.45034  0.29496  0.97114  1.0000
  C   C35       1.0  0.41656  0.68739  0.11593  1.0000
  C   C36       1.0  0.58344  0.31261  0.88407  1.0000
  C   C37       1.0  0.70619  0.59794  0.02510  1.0000
  C   C38       1.0  0.29381  0.40207  0.97490  1.0000
  C   C39       1.0  0.93338  0.59220  0.84085  1.0000
  C   C40       1.0  0.06662  0.40780  0.15915  1.0000
  C   C41       1.0  0.02877  0.71506  0.90833  1.0000
  C   C42       1.0  0.97123  0.28494  0.09167  1.0000
  N   N1        1.0  0.19885  0.60477  0.49233  1.0000
  N   N2        1.0  0.80115  0.39523  0.50766  1.0000
  N   N3        1.0  0.15459  0.68269  0.32203  1.0000
  N   N4        1.0  0.84541  0.31731  0.67797  1.0000
  N   N5        1.0  0.18516  0.54439  0.31936  1.0000
  N   N6        1.0  0.81484  0.45562  0.68064  1.0000
  N   N7        1.0  0.05291  0.64139  0.80974  1.0000
  N   N8        1.0  0.94709  0.35861  0.19025  1.0000
  N   N9        1.0  0.84346  0.63419  0.95337  1.0000
  N   N10       1.0  0.15654  0.36581  0.04663  1.0000
  N   N11       1.0  0.90217  0.71324  0.99850  1.0000
  N   N12       1.0  0.09784  0.28676  0.00150  1.0000
  O   O1        1.0  0.16331  0.36443  0.67239  1.0000
  O   O2        1.0  0.83669  0.63557  0.32761  1.0000
  O   O3        1.0  0.38342  0.39886  0.67056  1.0000
  O   O4        1.0  0.61658  0.60114  0.32944  1.0000
  O   O5        1.0  0.85275  0.97833  0.66643  1.0000
  O   O6        1.0  0.14725  0.02167  0.33357  1.0000
  O   O7        1.0  0.84989  0.77113  0.62616  1.0000
  O   O8        1.0  0.15011  0.22887  0.37384  1.0000
  O   O9        1.0  0.34734  0.71912  0.65716  1.0000
  O   O10       1.0  0.65266  0.28088  0.34284  1.0000
  O   O11       1.0  0.14837  0.90671  0.63164  1.0000
  O   O12       1.0  0.85163  0.09328  0.36836  1.0000
