data_image0
_chemical_formula_structural       Na2P4H16C4N2O12
_chemical_formula_sum              "Na2 P4 H16 C4 N2 O12"
_cell_length_a       5.49708
_cell_length_b       8.11406
_cell_length_c       9.00076
_cell_angle_alpha    99.1971
_cell_angle_beta     102.791
_cell_angle_gamma    100.702

_space_group_name_H-M_alt    "P 1"
_space_group_IT_number       1

loop_
  _space_group_symop_operation_xyz
  'x, y, z'

loop_
  _atom_site_type_symbol
  _atom_site_label
  _atom_site_symmetry_multiplicity
  _atom_site_fract_x
  _atom_site_fract_y
  _atom_site_fract_z
  _atom_site_occupancy
  Na  Na1       1.0  0.44342  0.62624  0.15743  1.0000
  Na  Na2       1.0  0.55659  0.37376  0.84257  1.0000
  P   P1        1.0  0.85849  0.99556  0.26735  1.0000
  P   P2        1.0  0.14154  0.00445  0.73267  1.0000
  P   P3        1.0  0.90392  0.34541  0.15667  1.0000
  P   P4        1.0  0.09608  0.65459  0.84333  1.0000
  H   H1        1.0  0.75170  0.91593  0.47263  1.0000
  H   H2        1.0  0.24829  0.08407  0.52737  1.0000
  H   H3        1.0  0.37169  0.07999  0.25920  1.0000
  H   H4        1.0  0.62831  0.92001  0.74080  1.0000
  H   H5        1.0  0.39714  0.26966  0.21263  1.0000
  H   H6        1.0  0.60285  0.73033  0.78737  1.0000
  H   H7        1.0  0.01188  0.33473  0.49554  1.0000
  H   H8        1.0  0.98812  0.66526  0.50446  1.0000
  H   H9        1.0  0.72608  0.40939  0.44560  1.0000
  H   H10       1.0  0.27392  0.59061  0.55441  1.0000
  H   H11       1.0  0.71765  0.21299  0.50930  1.0000
  H   H12       1.0  0.28235  0.78700  0.49070  1.0000
  H   H13       1.0  0.41446  0.10535  0.08196  1.0000
  H   H14       1.0  0.58554  0.89465  0.91803  1.0000
  H   H15       1.0  0.99018  0.18192  0.95501  1.0000
  H   H16       1.0  0.00982  0.81807  0.04499  1.0000
  C   C1        1.0  0.75538  0.20041  0.27131  1.0000
  C   C2        1.0  0.24461  0.79959  0.72869  1.0000
  C   C3        1.0  0.80601  0.29496  0.44063  1.0000
  C   C4        1.0  0.19399  0.70504  0.55937  1.0000
  N   N1        1.0  0.47262  0.15899  0.20094  1.0000
  N   N2        1.0  0.52739  0.84101  0.79905  1.0000
  O   O1        1.0  0.67844  0.88787  0.35173  1.0000
  O   O2        1.0  0.32156  0.11213  0.64827  1.0000
  O   O3        1.0  0.79718  0.89727  0.10055  1.0000
  O   O4        1.0  0.20283  0.10273  0.89945  1.0000
  O   O5        1.0  0.13800  0.03429  0.35858  1.0000
  O   O6        1.0  0.86198  0.96574  0.64142  1.0000
  O   O7        1.0  0.74330  0.47600  0.13960  1.0000
  O   O8        1.0  0.25671  0.52401  0.86041  1.0000
  O   O9        1.0  0.84325  0.22817  0.98500  1.0000
  O   O10       1.0  0.15673  0.77184  0.01499  1.0000
  O   O11       1.0  0.18960  0.40379  0.22992  1.0000
  O   O12       1.0  0.81041  0.59620  0.77008  1.0000
