data_image0
_chemical_formula_structural       Zn4H34C38N2O18
_chemical_formula_sum              "Zn4 H34 C38 N2 O18"
_cell_length_a       7.70831
_cell_length_b       10.8689
_cell_length_c       12.4707
_cell_angle_alpha    107.947
_cell_angle_beta     91.5434
_cell_angle_gamma    101.252

_space_group_name_H-M_alt    "P 1"
_space_group_IT_number       1

loop_
  _space_group_symop_operation_xyz
  'x, y, z'

loop_
  _atom_site_type_symbol
  _atom_site_label
  _atom_site_symmetry_multiplicity
  _atom_site_fract_x
  _atom_site_fract_y
  _atom_site_fract_z
  _atom_site_occupancy
  Zn  Zn1       1.0  0.14729  0.50170  0.10420  1.0000
  Zn  Zn2       1.0  0.85271  0.49830  0.89580  1.0000
  Zn  Zn3       1.0  0.51078  0.65097  0.04043  1.0000
  Zn  Zn4       1.0  0.48922  0.34903  0.95957  1.0000
  H   H1        1.0  0.25246  0.47884  0.91352  1.0000
  H   H2        1.0  0.74754  0.52116  0.08648  1.0000
  H   H3        1.0  0.78076  0.80427  0.38748  1.0000
  H   H4        1.0  0.21924  0.19572  0.61252  1.0000
  H   H5        1.0  0.85762  0.93423  0.59330  1.0000
  H   H6        1.0  0.14238  0.06577  0.40670  1.0000
  H   H7        1.0  0.62132  0.98399  0.71881  1.0000
  H   H8        1.0  0.37868  0.01601  0.28119  1.0000
  H   H9        1.0  0.22570  0.76756  0.43860  1.0000
  H   H10       1.0  0.77430  0.23245  0.56140  1.0000
  H   H11       1.0  0.37657  0.08048  0.76813  1.0000
  H   H12       1.0  0.62343  0.91952  0.23188  1.0000
  H   H13       1.0  0.38004  0.93909  0.81201  1.0000
  H   H14       1.0  0.61996  0.06091  0.18799  1.0000
  H   H15       1.0  0.06828  0.78448  0.80270  1.0000
  H   H16       1.0  0.93172  0.21551  0.19730  1.0000
  H   H17       1.0  0.67690  0.00307  0.94617  1.0000
  H   H18       1.0  0.32311  0.99693  0.05383  1.0000
  H   H19       1.0  0.14121  0.19729  0.83096  1.0000
  H   H20       1.0  0.85879  0.80270  0.16904  1.0000
  H   H21       1.0  0.02927  0.57881  0.34611  1.0000
  H   H22       1.0  0.97073  0.42119  0.65388  1.0000
  H   H23       1.0  0.50026  0.46304  0.29372  1.0000
  H   H24       1.0  0.49974  0.53696  0.70628  1.0000
  H   H25       1.0  0.55503  0.32864  0.33159  1.0000
  H   H26       1.0  0.44497  0.67136  0.66841  1.0000
  H   H27       1.0  0.62031  0.35527  0.20242  1.0000
  H   H28       1.0  0.37969  0.64473  0.79758  1.0000
  H   H29       1.0  0.91362  0.59772  0.50659  1.0000
  H   H30       1.0  0.08638  0.40228  0.49341  1.0000
  H   H31       1.0  0.75228  0.45426  0.50723  1.0000
  H   H32       1.0  0.24773  0.54574  0.49277  1.0000
  H   H33       1.0  0.68389  0.59992  0.50004  1.0000
  H   H34       1.0  0.31611  0.40008  0.49996  1.0000
  C   C1        1.0  0.44546  0.69703  0.27932  1.0000
  C   C2        1.0  0.55453  0.30297  0.72068  1.0000
  C   C3        1.0  0.49820  0.77476  0.40150  1.0000
  C   C4        1.0  0.50180  0.22524  0.59850  1.0000
  C   C5        1.0  0.67734  0.82362  0.44434  1.0000
  C   C6        1.0  0.32266  0.17638  0.55566  1.0000
  C   C7        1.0  0.71902  0.89672  0.55857  1.0000
  C   C8        1.0  0.28097  0.10328  0.44143  1.0000
  C   C9        1.0  0.58535  0.92445  0.63048  1.0000
  C   C10       1.0  0.41464  0.07555  0.36952  1.0000
  C   C11       1.0  0.40672  0.87663  0.58685  1.0000
  C   C12       1.0  0.59328  0.12337  0.41315  1.0000
  C   C13       1.0  0.36440  0.80128  0.47273  1.0000
  C   C14       1.0  0.63559  0.19872  0.52727  1.0000
  C   C15       1.0  0.30071  0.98249  0.76419  1.0000
  C   C16       1.0  0.69929  0.01751  0.23581  1.0000
  C   C17       1.0  0.12476  0.99020  0.81104  1.0000
  C   C18       1.0  0.87524  0.00979  0.18896  1.0000
  C   C19       1.0  0.02195  0.87696  0.82571  1.0000
  C   C20       1.0  0.97805  0.12303  0.17429  1.0000
  C   C21       1.0  0.86037  0.88033  0.87377  1.0000
  C   C22       1.0  0.13963  0.11967  0.12624  1.0000
  C   C23       1.0  0.80095  0.99868  0.90689  1.0000
  C   C24       1.0  0.19905  0.00132  0.09311  1.0000
  C   C25       1.0  0.90168  0.11276  0.89089  1.0000
  C   C26       1.0  0.09832  0.88724  0.10911  1.0000
  C   C27       1.0  0.06318  0.10803  0.84255  1.0000
  C   C28       1.0  0.93682  0.89196  0.15745  1.0000
  C   C29       1.0  0.83224  0.23764  0.92464  1.0000
  C   C30       1.0  0.16776  0.76236  0.07536  1.0000
  C   C31       1.0  0.76238  0.75804  0.89493  1.0000
  C   C32       1.0  0.23762  0.24196  0.10507  1.0000
  C   C33       1.0  0.90659  0.51928  0.29312  1.0000
  C   C34       1.0  0.09341  0.48072  0.70688  1.0000
  C   C35       1.0  0.60149  0.40389  0.29088  1.0000
  C   C36       1.0  0.39851  0.59611  0.70912  1.0000
  C   C37       1.0  0.78075  0.53715  0.47286  1.0000
  C   C38       1.0  0.21925  0.46285  0.52714  1.0000
  N   N1        1.0  0.76998  0.48685  0.34975  1.0000
  N   N2        1.0  0.23002  0.51315  0.65025  1.0000
  O   O1        1.0  0.32007  0.48261  0.98290  1.0000
  O   O2        1.0  0.67993  0.51739  0.01710  1.0000
  O   O3        1.0  0.28372  0.63725  0.25234  1.0000
  O   O4        1.0  0.71628  0.36275  0.74766  1.0000
  O   O5        1.0  0.56648  0.69696  0.21117  1.0000
  O   O6        1.0  0.43352  0.30304  0.78883  1.0000
  O   O7        1.0  0.26465  0.89724  0.64764  1.0000
  O   O8        1.0  0.73535  0.10276  0.35236  1.0000
  O   O9        1.0  0.66692  0.22289  0.93363  1.0000
  O   O10       1.0  0.33308  0.77711  0.06637  1.0000
  O   O11       1.0  0.94263  0.34833  0.93967  1.0000
  O   O12       1.0  0.05737  0.65166  0.06033  1.0000
  O   O13       1.0  0.63810  0.77076  0.96041  1.0000
  O   O14       1.0  0.36191  0.22924  0.03959  1.0000
  O   O15       1.0  0.81200  0.65137  0.84533  1.0000
  O   O16       1.0  0.18800  0.34863  0.15467  1.0000
  O   O17       1.0  0.90187  0.48514  0.18679  1.0000
  O   O18       1.0  0.09813  0.51486  0.81321  1.0000
