data_image0
_chemical_formula_structural       Ag2H32C30S2N4O6F6
_chemical_formula_sum              "Ag2 H32 C30 S2 N4 O6 F6"
_cell_length_a       9.17244
_cell_length_b       9.18479
_cell_length_c       11.1022
_cell_angle_alpha    101.491
_cell_angle_beta     103.871
_cell_angle_gamma    106.162

_space_group_name_H-M_alt    "P 1"
_space_group_IT_number       1

loop_
  _space_group_symop_operation_xyz
  'x, y, z'

loop_
  _atom_site_type_symbol
  _atom_site_label
  _atom_site_symmetry_multiplicity
  _atom_site_fract_x
  _atom_site_fract_y
  _atom_site_fract_z
  _atom_site_occupancy
  Ag  Ag1       1.0  0.33845  0.69469  0.43369  1.0000
  Ag  Ag2       1.0  0.66154  0.30531  0.56631  1.0000
  H   H1        1.0  0.17461  0.99452  0.76467  1.0000
  H   H2        1.0  0.82538  0.00548  0.23533  1.0000
  H   H3        1.0  0.32616  0.16964  0.77684  1.0000
  H   H4        1.0  0.67383  0.83036  0.22316  1.0000
  H   H5        1.0  0.18448  0.73847  0.73440  1.0000
  H   H6        1.0  0.81552  0.26153  0.26561  1.0000
  H   H7        1.0  0.09610  0.77275  0.85772  1.0000
  H   H8        1.0  0.90390  0.22725  0.14228  1.0000
  H   H9        1.0  0.19823  0.63452  0.85009  1.0000
  H   H10       1.0  0.80177  0.36548  0.14991  1.0000
  H   H11       1.0  0.56049  0.27421  0.82359  1.0000
  H   H12       1.0  0.43951  0.72579  0.17641  1.0000
  H   H13       1.0  0.59703  0.38927  0.98286  1.0000
  H   H14       1.0  0.40297  0.61074  0.01714  1.0000
  H   H15       1.0  0.74564  0.32031  0.94224  1.0000
  H   H16       1.0  0.25436  0.67969  0.05776  1.0000
  H   H17       1.0  0.39118  0.25589  0.14214  1.0000
  H   H18       1.0  0.60882  0.74411  0.85786  1.0000
  H   H19       1.0  0.30787  0.32852  0.01687  1.0000
  H   H20       1.0  0.69213  0.67148  0.98313  1.0000
  H   H21       1.0  0.12533  0.28342  0.83981  1.0000
  H   H22       1.0  0.87467  0.71658  0.16019  1.0000
  H   H23       1.0  0.04216  0.36527  0.95216  1.0000
  H   H24       1.0  0.95784  0.63473  0.04784  1.0000
  H   H25       1.0  0.91610  0.23543  0.79977  1.0000
  H   H26       1.0  0.08391  0.76456  0.20022  1.0000
  H   H27       1.0  0.31500  0.17174  0.29072  1.0000
  H   H28       1.0  0.68500  0.82826  0.70928  1.0000
  H   H29       1.0  0.19785  0.99609  0.30872  1.0000
  H   H30       1.0  0.80215  0.00390  0.69127  1.0000
  H   H31       1.0  0.33801  0.99122  0.22417  1.0000
  H   H32       1.0  0.66199  0.00878  0.77584  1.0000
  C   C1        1.0  0.40777  0.02099  0.89025  1.0000
  C   C2        1.0  0.59223  0.97901  0.10975  1.0000
  C   C3        1.0  0.35417  0.87912  0.92228  1.0000
  C   C4        1.0  0.64583  0.12088  0.07772  1.0000
  C   C5        1.0  0.55418  0.14070  0.96471  1.0000
  C   C6        1.0  0.44582  0.85930  0.03529  1.0000
  C   C7        1.0  0.30155  0.04409  0.77223  1.0000
  C   C8        1.0  0.69845  0.95591  0.22776  1.0000
  C   C9        1.0  0.32169  0.96399  0.65436  1.0000
  C   C10       1.0  0.67831  0.03601  0.34564  1.0000
  C   C11       1.0  0.20075  0.75005  0.83722  1.0000
  C   C12       1.0  0.79925  0.24995  0.16278  1.0000
  C   C13       1.0  0.61653  0.28784  0.92569  1.0000
  C   C14       1.0  0.38347  0.71216  0.07431  1.0000
  C   C15       1.0  0.13411  0.13488  0.04792  1.0000
  C   C16       1.0  0.86590  0.86512  0.95208  1.0000
  C   C17       1.0  0.01231  0.12019  0.93644  1.0000
  C   C18       1.0  0.98769  0.87981  0.06356  1.0000
  C   C19       1.0  0.12239  0.01975  0.11527  1.0000
  C   C20       1.0  0.87761  0.98025  0.88473  1.0000
  C   C21       1.0  0.28422  0.28117  0.09644  1.0000
  C   C22       1.0  0.71578  0.71883  0.90356  1.0000
  C   C23       1.0  0.26973  0.40512  0.19103  1.0000
  C   C24       1.0  0.73027  0.59488  0.80896  1.0000
  C   C25       1.0  0.02434  0.25648  0.87840  1.0000
  C   C26       1.0  0.97566  0.74352  0.12160  1.0000
  C   C27       1.0  0.24937  0.04619  0.24034  1.0000
  C   C28       1.0  0.75063  0.95381  0.75966  1.0000
  C   C29       1.0  0.89195  0.68259  0.44284  1.0000
  C   C30       1.0  0.10805  0.31741  0.55716  1.0000
  S   S1        1.0  0.67203  0.59542  0.35822  1.0000
  S   S2        1.0  0.32797  0.40457  0.64178  1.0000
  N   N1        1.0  0.34071  0.89283  0.56397  1.0000
  N   N2        1.0  0.65929  0.10717  0.43603  1.0000
  N   N3        1.0  0.25473  0.50188  0.26737  1.0000
  N   N4        1.0  0.74527  0.49812  0.73263  1.0000
  O   O1        1.0  0.61686  0.71531  0.42206  1.0000
  O   O2        1.0  0.38314  0.28469  0.57793  1.0000
  O   O3        1.0  0.62262  0.44187  0.38303  1.0000
  O   O4        1.0  0.37738  0.55814  0.61697  1.0000
  O   O5        1.0  0.65884  0.58612  0.22271  1.0000
  O   O6        1.0  0.34116  0.41388  0.77729  1.0000
  F   F1        1.0  0.96951  0.58856  0.39779  1.0000
  F   F2        1.0  0.03049  0.41143  0.60222  1.0000
  F   F3        1.0  0.95300  0.82666  0.42442  1.0000
  F   F4        1.0  0.04701  0.17333  0.57558  1.0000
  F   F5        1.0  0.92496  0.70354  0.57233  1.0000
  F   F6        1.0  0.07503  0.29646  0.42768  1.0000
