data_image0
_chemical_formula_structural       Cu2H6C10I8N2
_chemical_formula_sum              "Cu2 H6 C10 I8 N2"
_cell_length_a       4.14513
_cell_length_b       11.1215
_cell_length_c       12.0523
_cell_angle_alpha    80.1928
_cell_angle_beta     89.0102
_cell_angle_gamma    82.8372

_space_group_name_H-M_alt    "P 1"
_space_group_IT_number       1

loop_
  _space_group_symop_operation_xyz
  'x, y, z'

loop_
  _atom_site_type_symbol
  _atom_site_label
  _atom_site_symmetry_multiplicity
  _atom_site_fract_x
  _atom_site_fract_y
  _atom_site_fract_z
  _atom_site_occupancy
  Cu  Cu1       1.0  0.26907  0.41698  0.51675  1.0000
  Cu  Cu2       1.0  0.73094  0.58302  0.48326  1.0000
  H   H1        1.0  0.43757  0.98414  0.88098  1.0000
  H   H2        1.0  0.56241  0.01585  0.11902  1.0000
  H   H3        1.0  0.60229  0.16022  0.53923  1.0000
  H   H4        1.0  0.39771  0.83978  0.46078  1.0000
  H   H5        1.0  0.04398  0.36042  0.75172  1.0000
  H   H6        1.0  0.95600  0.63958  0.24828  1.0000
  C   C1        1.0  0.40353  0.06324  0.81330  1.0000
  C   C2        1.0  0.59646  0.93677  0.18669  1.0000
  C   C3        1.0  0.53790  0.05775  0.70695  1.0000
  C   C4        1.0  0.46210  0.94225  0.29306  1.0000
  C   C5        1.0  0.49578  0.16097  0.62247  1.0000
  C   C6        1.0  0.50422  0.83903  0.37753  1.0000
  C   C7        1.0  0.22555  0.17386  0.82990  1.0000
  C   C8        1.0  0.77444  0.82613  0.17011  1.0000
  C   C9        1.0  0.18459  0.27340  0.74135  1.0000
  C   C10       1.0  0.81540  0.72661  0.25864  1.0000
  I   I1        1.0  0.21648  0.60980  0.61487  1.0000
  I   I2        1.0  0.78353  0.39020  0.38514  1.0000
  I   I3        1.0  0.03109  0.19701  0.98786  1.0000
  I   I4        1.0  0.96890  0.80299  0.01214  1.0000
  I   I5        1.0  0.79873  0.89302  0.67175  1.0000
  I   I6        1.0  0.20129  0.10698  0.32825  1.0000
  I   I7        1.0  0.42875  0.52923  0.88545  1.0000
  I   I8        1.0  0.57128  0.47077  0.11455  1.0000
  N   N1        1.0  0.32057  0.26683  0.63977  1.0000
  N   N2        1.0  0.67942  0.73317  0.36023  1.0000
