data_image0
_chemical_formula_structural       K2H10C12N12O12
_chemical_formula_sum              "K2 H10 C12 N12 O12"
_cell_length_a       4.56951
_cell_length_b       10.0646
_cell_length_c       12.3071
_cell_angle_alpha    106.428
_cell_angle_beta     90
_cell_angle_gamma    90

_space_group_name_H-M_alt    "P 1"
_space_group_IT_number       1

loop_
  _space_group_symop_operation_xyz
  'x, y, z'

loop_
  _atom_site_type_symbol
  _atom_site_label
  _atom_site_symmetry_multiplicity
  _atom_site_fract_x
  _atom_site_fract_y
  _atom_site_fract_z
  _atom_site_occupancy
  K   K1        1.0  0.82110  0.50000  0.75000  1.0000
  K   K2        1.0  0.17890  0.50000  0.25000  1.0000
  H   H1        1.0  1.00000  0.50000  0.50000  1.0000
  H   H2        1.0  0.00000  0.50000  1.00000  1.0000
  H   H3        1.0  0.15974  0.92149  0.38344  1.0000
  H   H4        1.0  0.15973  0.07851  0.11656  1.0000
  H   H5        1.0  0.84027  0.07851  0.61656  1.0000
  H   H6        1.0  0.84027  0.92149  0.88344  1.0000
  H   H7        1.0  0.44614  0.79853  0.34944  1.0000
  H   H8        1.0  0.44614  0.20147  0.15056  1.0000
  H   H9        1.0  0.55386  0.20147  0.65056  1.0000
  H   H10       1.0  0.55386  0.79853  0.84944  1.0000
  C   C1        1.0  0.67306  0.64317  0.49270  1.0000
  C   C2        1.0  0.67306  0.35683  0.00730  1.0000
  C   C3        1.0  0.32694  0.35683  0.50730  1.0000
  C   C4        1.0  0.32694  0.64317  0.99270  1.0000
  C   C5        1.0  0.27151  0.83233  0.50677  1.0000
  C   C6        1.0  0.27151  0.16767  0.99323  1.0000
  C   C7        1.0  0.72849  0.16767  0.49323  1.0000
  C   C8        1.0  0.72849  0.83233  0.00677  1.0000
  C   C9        1.0  0.44921  0.74322  0.55350  1.0000
  C   C10       1.0  0.44921  0.25678  0.94650  1.0000
  C   C11       1.0  0.55079  0.25678  0.44650  1.0000
  C   C12       1.0  0.55079  0.74322  0.05350  1.0000
  N   N1        1.0  0.37433  0.76044  0.65980  1.0000
  N   N2        1.0  0.37433  0.23956  0.84019  1.0000
  N   N3        1.0  0.62567  0.23956  0.34020  1.0000
  N   N4        1.0  0.62567  0.76044  0.15980  1.0000
  N   N5        1.0  0.27603  0.84262  0.40019  1.0000
  N   N6        1.0  0.27603  0.15738  0.09981  1.0000
  N   N7        1.0  0.72397  0.15738  0.59981  1.0000
  N   N8        1.0  0.72397  0.84262  0.90019  1.0000
  N   N9        1.0  0.08909  0.90181  0.58730  1.0000
  N   N10       1.0  0.08909  0.09819  0.91270  1.0000
  N   N11       1.0  0.91091  0.09819  0.41270  1.0000
  N   N12       1.0  0.91091  0.90181  0.08730  1.0000
  O   O1        1.0  0.81636  0.57863  0.55367  1.0000
  O   O2        1.0  0.81635  0.42137  0.94633  1.0000
  O   O3        1.0  0.18364  0.42137  0.44633  1.0000
  O   O4        1.0  0.18364  0.57863  0.05367  1.0000
  O   O5        1.0  0.15480  0.85592  0.68247  1.0000
  O   O6        1.0  0.15480  0.14408  0.81753  1.0000
  O   O7        1.0  0.84520  0.14408  0.31753  1.0000
  O   O8        1.0  0.84520  0.85592  0.18247  1.0000
  O   O9        1.0  0.70639  0.62648  0.38883  1.0000
  O   O10       1.0  0.70639  0.37352  0.11117  1.0000
  O   O11       1.0  0.29361  0.37352  0.61117  1.0000
  O   O12       1.0  0.29361  0.62648  0.88883  1.0000
