data_image0
_chemical_formula_structural       Cd2H20C30N24
_chemical_formula_sum              "Cd2 H20 C30 N24"
_cell_length_a       7.42481
_cell_length_b       8.09153
_cell_length_c       15.5964
_cell_angle_alpha    74.7004
_cell_angle_beta     76.7256
_cell_angle_gamma    76.4786

_space_group_name_H-M_alt    "P 1"
_space_group_IT_number       1

loop_
  _space_group_symop_operation_xyz
  'x, y, z'

loop_
  _atom_site_type_symbol
  _atom_site_label
  _atom_site_symmetry_multiplicity
  _atom_site_fract_x
  _atom_site_fract_y
  _atom_site_fract_z
  _atom_site_occupancy
  Cd  Cd1       1.0  0.75960  0.19772  0.20536  1.0000
  Cd  Cd2       1.0  0.24038  0.80229  0.79465  1.0000
  H   H1        1.0  0.39472  0.29812  0.10136  1.0000
  H   H2        1.0  0.60526  0.70189  0.89865  1.0000
  H   H3        1.0  0.12421  0.54315  0.07091  1.0000
  H   H4        1.0  0.87579  0.45686  0.92908  1.0000
  H   H5        1.0  0.11322  0.82483  0.11554  1.0000
  H   H6        1.0  0.88679  0.17518  0.88445  1.0000
  H   H7        1.0  0.37504  0.84718  0.18534  1.0000
  H   H8        1.0  0.62497  0.15282  0.81465  1.0000
  H   H9        1.0  0.66616  0.71121  0.24597  1.0000
  H   H10       1.0  0.33384  0.28880  0.75402  1.0000
  H   H11       1.0  0.18600  0.55518  0.32478  1.0000
  H   H12       1.0  0.81400  0.44481  0.67522  1.0000
  H   H13       1.0  0.46074  0.36139  0.54509  1.0000
  H   H14       1.0  0.53928  0.63860  0.45491  1.0000
  H   H15       1.0  0.23359  0.15256  0.61471  1.0000
  H   H16       1.0  0.76644  0.84742  0.38528  1.0000
  H   H17       1.0  0.69727  0.21864  0.40206  1.0000
  H   H18       1.0  0.30274  0.78136  0.59794  1.0000
  H   H19       1.0  0.83387  0.15273  0.48830  1.0000
  H   H20       1.0  0.16616  0.84727  0.51169  1.0000
  C   C1        1.0  0.11938  0.20267  0.03851  1.0000
  C   C2        1.0  0.88060  0.79735  0.96149  1.0000
  C   C3        1.0  0.28701  0.04714  0.93237  1.0000
  C   C4        1.0  0.71297  0.95287  0.06765  1.0000
  C   C5        1.0  0.12500  0.99662  0.30821  1.0000
  C   C6        1.0  0.87501  0.00337  0.69179  1.0000
  C   C7        1.0  0.39534  0.04510  0.34007  1.0000
  C   C8        1.0  0.60467  0.95489  0.65993  1.0000
  C   C9        1.0  0.38308  0.42195  0.11968  1.0000
  C   C10       1.0  0.61690  0.57806  0.88032  1.0000
  C   C11       1.0  0.23334  0.55958  0.10235  1.0000
  C   C12       1.0  0.76665  0.44043  0.89765  1.0000
  C   C13       1.0  0.22885  0.71486  0.12635  1.0000
  C   C14       1.0  0.77115  0.28515  0.87364  1.0000
  C   C15       1.0  0.37293  0.72755  0.16640  1.0000
  C   C16       1.0  0.62707  0.27245  0.83360  1.0000
  C   C17       1.0  0.51575  0.58211  0.18392  1.0000
  C   C18       1.0  0.48424  0.41789  0.81608  1.0000
  C   C19       1.0  0.65864  0.58643  0.23319  1.0000
  C   C20       1.0  0.34136  0.41357  0.76681  1.0000
  C   C21       1.0  0.91904  0.34522  0.38408  1.0000
  C   C22       1.0  0.08097  0.65478  0.61592  1.0000
  C   C23       1.0  0.07399  0.34905  0.42840  1.0000
  C   C24       1.0  0.92602  0.65094  0.57160  1.0000
  C   C25       1.0  0.19992  0.46465  0.38951  1.0000
  C   C26       1.0  0.80008  0.53534  0.61049  1.0000
  C   C27       1.0  0.34989  0.35701  0.51054  1.0000
  C   C28       1.0  0.65013  0.64298  0.48946  1.0000
  C   C29       1.0  0.22430  0.24197  0.54934  1.0000
  C   C30       1.0  0.77572  0.75802  0.45065  1.0000
  N   N1        1.0  0.98915  0.28052  0.08018  1.0000
  N   N2        1.0  0.01081  0.71951  0.91982  1.0000
  N   N3        1.0  0.27303  0.12366  0.99705  1.0000
  N   N4        1.0  0.72694  0.87636  0.00296  1.0000
  N   N5        1.0  0.31806  0.97653  0.87182  1.0000
  N   N6        1.0  0.68192  0.02346  0.12819  1.0000
  N   N7        1.0  0.00229  0.00976  0.26890  1.0000
  N   N8        1.0  0.99771  0.99024  0.73109  1.0000
  N   N9        1.0  0.25543  0.96580  0.35567  1.0000
  N   N10       1.0  0.74457  0.03419  0.64433  1.0000
  N   N11       1.0  0.52864  0.10638  0.33457  1.0000
  N   N12       1.0  0.47135  0.89362  0.66544  1.0000
  N   N13       1.0  0.51982  0.43225  0.15977  1.0000
  N   N14       1.0  0.48016  0.56775  0.84024  1.0000
  N   N15       1.0  0.76907  0.44480  0.26464  1.0000
  N   N16       1.0  0.23093  0.55521  0.73536  1.0000
  N   N17       1.0  0.90217  0.46021  0.30754  1.0000
  N   N18       1.0  0.09784  0.53979  0.69246  1.0000
  N   N19       1.0  0.08692  0.23676  0.50831  1.0000
  N   N20       1.0  0.91309  0.76323  0.49169  1.0000
  N   N21       1.0  0.33855  0.46837  0.43022  1.0000
  N   N22       1.0  0.66146  0.53162  0.56978  1.0000
  N   N23       1.0  0.80597  0.23085  0.42809  1.0000
  N   N24       1.0  0.19405  0.76915  0.57190  1.0000
