data_image0
_chemical_formula_structural       Cd2H24C32N24
_chemical_formula_sum              "Cd2 H24 C32 N24"
_cell_length_a       7.13275
_cell_length_b       8.78619
_cell_length_c       15.0855
_cell_angle_alpha    101.35
_cell_angle_beta     99.8465
_cell_angle_gamma    98.8662

_space_group_name_H-M_alt    "P 1"
_space_group_IT_number       1

loop_
  _space_group_symop_operation_xyz
  'x, y, z'

loop_
  _atom_site_type_symbol
  _atom_site_label
  _atom_site_symmetry_multiplicity
  _atom_site_fract_x
  _atom_site_fract_y
  _atom_site_fract_z
  _atom_site_occupancy
  Cd  Cd1       1.0  0.95272  0.78642  0.19161  1.0000
  Cd  Cd2       1.0  0.04727  0.21359  0.80838  1.0000
  H   H1        1.0  0.49480  0.70014  0.09332  1.0000
  H   H2        1.0  0.50519  0.29986  0.90668  1.0000
  H   H3        1.0  0.20597  0.47891  0.06174  1.0000
  H   H4        1.0  0.79403  0.52108  0.93825  1.0000
  H   H5        1.0  0.25626  0.22722  0.11121  1.0000
  H   H6        1.0  0.74374  0.77279  0.88879  1.0000
  H   H7        1.0  0.58520  0.20983  0.18983  1.0000
  H   H8        1.0  0.41480  0.79017  0.81017  1.0000
  H   H9        1.0  0.86166  0.88062  0.58764  1.0000
  H   H10       1.0  0.13835  0.11937  0.41235  1.0000
  H   H11       1.0  0.00232  0.64009  0.53450  1.0000
  H   H12       1.0  0.99768  0.35990  0.46549  1.0000
  H   H13       1.0  0.48931  0.43851  0.34299  1.0000
  H   H14       1.0  0.51068  0.56148  0.65701  1.0000
  H   H15       1.0  0.10402  0.30374  0.28387  1.0000
  H   H16       1.0  0.89598  0.69626  0.71613  1.0000
  H   H17       1.0  0.89293  0.19232  0.20126  1.0000
  H   H18       1.0  0.10706  0.80768  0.79874  1.0000
  H   H19       1.0  0.87430  0.27108  0.31549  1.0000
  H   H20       1.0  0.12570  0.72892  0.68451  1.0000
  H   H21       1.0  0.09340  0.82494  0.39479  1.0000
  H   H22       1.0  0.90661  0.17506  0.60521  1.0000
  H   H23       1.0  0.31864  0.88935  0.47353  1.0000
  H   H24       1.0  0.68137  0.11064  0.52647  1.0000
  C   C1        1.0  0.71596  0.95870  0.32521  1.0000
  C   C2        1.0  0.28404  0.04129  0.67479  1.0000
  C   C3        1.0  0.40064  0.99466  0.28059  1.0000
  C   C4        1.0  0.59936  0.00533  0.71941  1.0000
  C   C5        1.0  0.16926  0.81662  0.03004  1.0000
  C   C6        1.0  0.83076  0.18340  0.96996  1.0000
  C   C7        1.0  0.25444  0.99893  0.94526  1.0000
  C   C8        1.0  0.74555  0.00108  0.05473  1.0000
  C   C9        1.0  0.50710  0.58918  0.11385  1.0000
  C   C10       1.0  0.49290  0.41083  0.88615  1.0000
  C   C11       1.0  0.34760  0.46557  0.09617  1.0000
  C   C12       1.0  0.65240  0.53443  0.90384  1.0000
  C   C13       1.0  0.37626  0.32707  0.12347  1.0000
  C   C14       1.0  0.62374  0.67293  0.87653  1.0000
  C   C15       1.0  0.56066  0.31680  0.16753  1.0000
  C   C16       1.0  0.43934  0.68320  0.83248  1.0000
  C   C17       1.0  0.71381  0.44684  0.18414  1.0000
  C   C18       1.0  0.28620  0.55316  0.81586  1.0000
  C   C19       1.0  0.90811  0.44435  0.23606  1.0000
  C   C20       1.0  0.09188  0.55564  0.76393  1.0000
  C   C21       1.0  0.29972  0.68413  0.38092  1.0000
  C   C22       1.0  0.70029  0.31587  0.61908  1.0000
  C   C23       1.0  0.49877  0.67310  0.42451  1.0000
  C   C24       1.0  0.50123  0.32690  0.57549  1.0000
  C   C25       1.0  0.77827  0.78231  0.53178  1.0000
  C   C26       1.0  0.22174  0.21767  0.46821  1.0000
  C   C27       1.0  0.85595  0.64896  0.50296  1.0000
  C   C28       1.0  0.14405  0.35103  0.49704  1.0000
  C   C29       1.0  0.57583  0.53788  0.39695  1.0000
  C   C30       1.0  0.42418  0.46211  0.60305  1.0000
  C   C31       1.0  0.94824  0.29408  0.25985  1.0000
  C   C32       1.0  0.05176  0.70592  0.74015  1.0000
  N   N1        1.0  0.85343  0.89819  0.33408  1.0000
  N   N2        1.0  0.14659  0.10182  0.66592  1.0000
  N   N3        1.0  0.58039  0.03947  0.32153  1.0000
  N   N4        1.0  0.41961  0.96053  0.67847  1.0000
  N   N5        1.0  0.23454  0.97202  0.24546  1.0000
  N   N6        1.0  0.76547  0.02799  0.75454  1.0000
  N   N7        1.0  0.07434  0.71838  0.05614  1.0000
  N   N8        1.0  0.92568  0.28164  0.94386  1.0000
  N   N9        1.0  0.28902  0.92193  0.00861  1.0000
  N   N10       1.0  0.71099  0.07808  0.99139  1.0000
  N   N11       1.0  0.24102  0.07376  0.88829  1.0000
  N   N12       1.0  0.75897  0.92625  0.11171  1.0000
  N   N13       1.0  0.68418  0.57999  0.15640  1.0000
  N   N14       1.0  0.31581  0.42002  0.84361  1.0000
  N   N15       1.0  0.03529  0.57698  0.26360  1.0000
  N   N16       1.0  0.96471  0.42302  0.73640  1.0000
  N   N17       1.0  0.21409  0.56867  0.30923  1.0000
  N   N18       1.0  0.78591  0.43134  0.69077  1.0000
  N   N19       1.0  0.60002  0.79539  0.49262  1.0000
  N   N20       1.0  0.39998  0.20460  0.50738  1.0000
  N   N21       1.0  0.75444  0.52574  0.43552  1.0000
  N   N22       1.0  0.24555  0.47425  0.56447  1.0000
  N   N23       1.0  0.22625  0.80482  0.42195  1.0000
  N   N24       1.0  0.77375  0.19518  0.57805  1.0000
