data_image0
_chemical_formula_structural       Cd2H40C38N8O8
_chemical_formula_sum              "Cd2 H40 C38 N8 O8"
_cell_length_a       9.74899
_cell_length_b       10.0914
_cell_length_c       12.0485
_cell_angle_alpha    103.945
_cell_angle_beta     109.852
_cell_angle_gamma    97.3437

_space_group_name_H-M_alt    "P 1"
_space_group_IT_number       1

loop_
  _space_group_symop_operation_xyz
  'x, y, z'

loop_
  _atom_site_type_symbol
  _atom_site_label
  _atom_site_symmetry_multiplicity
  _atom_site_fract_x
  _atom_site_fract_y
  _atom_site_fract_z
  _atom_site_occupancy
  Cd  Cd1       1.0  0.43188  0.02276  0.33916  1.0000
  Cd  Cd2       1.0  0.56812  0.97725  0.66084  1.0000
  H   H1        1.0  0.25659  0.73974  0.14293  1.0000
  H   H2        1.0  0.74341  0.26026  0.85706  1.0000
  H   H3        1.0  0.37921  0.47284  0.33264  1.0000
  H   H4        1.0  0.62079  0.52716  0.66736  1.0000
  H   H5        1.0  0.28269  0.12970  0.60200  1.0000
  H   H6        1.0  0.71732  0.87030  0.39800  1.0000
  H   H7        1.0  0.17786  0.35960  0.57364  1.0000
  H   H8        1.0  0.82212  0.64040  0.42635  1.0000
  H   H9        1.0  0.96635  0.95542  0.79783  1.0000
  H   H10       1.0  0.03366  0.04458  0.20217  1.0000
  H   H11       1.0  0.98715  0.78747  0.73421  1.0000
  H   H12       1.0  0.01285  0.21253  0.26579  1.0000
  H   H13       1.0  0.02299  0.16538  0.57220  1.0000
  H   H14       1.0  0.97701  0.83462  0.42780  1.0000
  H   H15       1.0  0.01878  0.20720  0.72285  1.0000
  H   H16       1.0  0.98123  0.79279  0.27715  1.0000
  H   H17       1.0  0.90692  0.04705  0.60941  1.0000
  H   H18       1.0  0.09309  0.95294  0.39060  1.0000
  H   H19       1.0  0.20238  0.77312  0.53043  1.0000
  H   H20       1.0  0.79762  0.22689  0.46957  1.0000
  H   H21       1.0  0.11933  0.59585  0.62056  1.0000
  H   H22       1.0  0.88067  0.40415  0.37943  1.0000
  H   H23       1.0  0.48231  0.82262  0.80695  1.0000
  H   H24       1.0  0.51770  0.17738  0.19305  1.0000
  H   H25       1.0  0.31531  0.73551  0.81002  1.0000
  H   H26       1.0  0.68469  0.26449  0.18998  1.0000
  H   H27       1.0  0.42996  0.88499  0.93487  1.0000
  H   H28       1.0  0.57005  0.11501  0.06513  1.0000
  H   H29       1.0  0.27552  0.20704  0.14848  1.0000
  H   H30       1.0  0.72449  0.79297  0.85151  1.0000
  H   H31       1.0  0.11597  0.16946  0.00798  1.0000
  H   H32       1.0  0.88404  0.83054  0.99202  1.0000
  H   H33       1.0  0.29551  0.17248  0.00274  1.0000
  H   H34       1.0  0.70450  0.82752  0.99725  1.0000
  H   H35       1.0  0.10429  0.53769  0.94521  1.0000
  H   H36       1.0  0.89570  0.46230  0.05477  1.0000
  H   H37       1.0  0.11940  0.57782  0.81375  1.0000
  H   H38       1.0  0.88060  0.42219  0.18624  1.0000
  H   H39       1.0  0.95083  0.57891  0.83866  1.0000
  H   H40       1.0  0.04916  0.42110  0.16133  1.0000
  C   C1        1.0  0.34442  0.73854  0.36964  1.0000
  C   C2        1.0  0.65558  0.26146  0.63036  1.0000
  C   C3        1.0  0.32276  0.49980  0.39610  1.0000
  C   C4        1.0  0.67724  0.50020  0.60390  1.0000
  C   C5        1.0  0.13259  0.75621  0.96025  1.0000
  C   C6        1.0  0.86741  0.24379  0.03975  1.0000
  C   C7        1.0  0.28268  0.40180  0.45089  1.0000
  C   C8        1.0  0.71730  0.59820  0.54911  1.0000
  C   C9        1.0  0.16132  0.95574  0.75439  1.0000
  C   C10       1.0  0.83869  0.04426  0.24561  1.0000
  C   C11       1.0  0.20097  0.99077  0.03725  1.0000
  C   C12       1.0  0.79903  0.00923  0.96275  1.0000
  C   C13       1.0  0.14139  0.05103  0.68612  1.0000
  C   C14       1.0  0.85861  0.94897  0.31389  1.0000
  C   C15       1.0  0.31999  0.26120  0.42380  1.0000
  C   C16       1.0  0.68000  0.73880  0.57620  1.0000
  C   C17       1.0  0.29504  0.63367  0.42555  1.0000
  C   C18       1.0  0.70495  0.36633  0.57445  1.0000
  C   C19       1.0  0.20997  0.43717  0.53248  1.0000
  C   C20       1.0  0.79001  0.56283  0.46751  1.0000
  C   C21       1.0  0.05057  0.89191  0.79956  1.0000
  C   C22       1.0  0.94943  0.10809  0.20044  1.0000
  C   C23       1.0  0.01595  0.12110  0.64534  1.0000
  C   C24       1.0  0.98405  0.87890  0.35467  1.0000
  C   C25       1.0  0.22287  0.66839  0.50753  1.0000
  C   C26       1.0  0.77713  0.33161  0.49247  1.0000
  C   C27       1.0  0.30483  0.93029  0.76852  1.0000
  C   C28       1.0  0.69518  0.06971  0.23148  1.0000
  C   C29       1.0  0.17894  0.56953  0.55942  1.0000
  C   C30       1.0  0.82105  0.43047  0.44058  1.0000
  C   C31       1.0  0.12236  0.87886  0.92657  1.0000
  C   C32       1.0  0.87765  0.12114  0.07343  1.0000
  C   C33       1.0  0.38759  0.83905  0.83368  1.0000
  C   C34       1.0  0.61242  0.16095  0.16633  1.0000
  C   C35       1.0  0.22391  0.14361  0.05077  1.0000
  C   C36       1.0  0.77610  0.85639  0.94923  1.0000
  C   C37       1.0  0.07356  0.60515  0.88586  1.0000
  C   C38       1.0  0.92644  0.39485  0.11413  1.0000
  N   N1        1.0  0.25571  0.93903  0.13277  1.0000
  N   N2        1.0  0.74429  0.06097  0.86723  1.0000
  N   N3        1.0  0.21257  0.79747  0.08396  1.0000
  N   N4        1.0  0.78744  0.20253  0.91604  1.0000
  N   N5        1.0  0.36639  0.00398  0.71051  1.0000
  N   N6        1.0  0.63362  0.99602  0.28949  1.0000
  N   N7        1.0  0.26660  0.07682  0.66218  1.0000
  N   N8        1.0  0.73341  0.92318  0.33783  1.0000
  O   O1        1.0  0.37428  0.86981  0.43300  1.0000
  O   O2        1.0  0.62573  0.13019  0.56701  1.0000
  O   O3        1.0  0.39306  0.23940  0.35289  1.0000
  O   O4        1.0  0.60693  0.76059  0.64711  1.0000
  O   O5        1.0  0.35378  0.69549  0.26600  1.0000
  O   O6        1.0  0.64623  0.30452  0.73400  1.0000
  O   O7        1.0  0.27985  0.16998  0.46970  1.0000
  O   O8        1.0  0.72014  0.83002  0.53030  1.0000
