data_image0
_chemical_formula_structural       K4H20C16O24
_chemical_formula_sum              "K4 H20 C16 O24"
_cell_length_a       7.60336
_cell_length_b       7.74251
_cell_length_c       10.7956
_cell_angle_alpha    90
_cell_angle_beta     90.0002
_cell_angle_gamma    90

_space_group_name_H-M_alt    "P 1"
_space_group_IT_number       1

loop_
  _space_group_symop_operation_xyz
  'x, y, z'

loop_
  _atom_site_type_symbol
  _atom_site_label
  _atom_site_symmetry_multiplicity
  _atom_site_fract_x
  _atom_site_fract_y
  _atom_site_fract_z
  _atom_site_occupancy
  K   K1        1.0  0.16113  0.67183  0.53017  1.0000
  K   K2        1.0  0.33887  0.32817  0.03017  1.0000
  K   K3        1.0  0.66113  0.82817  0.46984  1.0000
  K   K4        1.0  0.83887  0.17183  0.96984  1.0000
  H   H1        1.0  0.26187  0.81846  0.04965  1.0000
  H   H2        1.0  0.23813  0.18154  0.54965  1.0000
  H   H3        1.0  0.76187  0.68154  0.95035  1.0000
  H   H4        1.0  0.73813  0.31846  0.45035  1.0000
  H   H5        1.0  0.22129  0.05230  0.19574  1.0000
  H   H6        1.0  0.27870  0.94770  0.69574  1.0000
  H   H7        1.0  0.72130  0.44770  0.80426  1.0000
  H   H8        1.0  0.77870  0.55230  0.30426  1.0000
  H   H9        1.0  0.34801  0.04201  0.36374  1.0000
  H   H10       1.0  0.15199  0.95799  0.86374  1.0000
  H   H11       1.0  0.84801  0.45799  0.63626  1.0000
  H   H12       1.0  0.65199  0.54201  0.13626  1.0000
  H   H13       1.0  0.36719  0.61102  0.25621  1.0000
  H   H14       1.0  0.13281  0.38898  0.75621  1.0000
  H   H15       1.0  0.86719  0.88898  0.74379  1.0000
  H   H16       1.0  0.63281  0.11102  0.24379  1.0000
  H   H17       1.0  0.81935  0.83630  0.14101  1.0000
  H   H18       1.0  0.68065  0.16369  0.64101  1.0000
  H   H19       1.0  0.31935  0.66369  0.85899  1.0000
  H   H20       1.0  0.18065  0.33631  0.35899  1.0000
  C   C1        1.0  0.03463  0.85942  0.24067  1.0000
  C   C2        1.0  0.46538  0.14058  0.74067  1.0000
  C   C3        1.0  0.53463  0.64058  0.75934  1.0000
  C   C4        1.0  0.96538  0.35942  0.25933  1.0000
  C   C5        1.0  0.22505  0.92036  0.23306  1.0000
  C   C6        1.0  0.27495  0.07964  0.73306  1.0000
  C   C7        1.0  0.72505  0.57964  0.76694  1.0000
  C   C8        1.0  0.77495  0.42036  0.26694  1.0000
  C   C9        1.0  0.32529  0.80467  0.14065  1.0000
  C   C10       1.0  0.17470  0.19533  0.64065  1.0000
  C   C11       1.0  0.82530  0.69533  0.85935  1.0000
  C   C12       1.0  0.67470  0.30467  0.35935  1.0000
  C   C13       1.0  0.51436  0.87234  0.12774  1.0000
  C   C14       1.0  0.98564  0.12766  0.62774  1.0000
  C   C15       1.0  0.01437  0.62766  0.87226  1.0000
  C   C16       1.0  0.48563  0.37234  0.37225  1.0000
  O   O1        1.0  0.96895  0.79410  0.33398  1.0000
  O   O2        1.0  0.53105  0.20590  0.83398  1.0000
  O   O3        1.0  0.46895  0.70590  0.66602  1.0000
  O   O4        1.0  0.03105  0.29410  0.16602  1.0000
  O   O5        1.0  0.94961  0.88289  0.13480  1.0000
  O   O6        1.0  0.55039  0.11711  0.63480  1.0000
  O   O7        1.0  0.44961  0.61712  0.86520  1.0000
  O   O8        1.0  0.05039  0.38289  0.36520  1.0000
  O   O9        1.0  0.30874  0.92032  0.35119  1.0000
  O   O10       1.0  0.19126  0.07968  0.85120  1.0000
  O   O11       1.0  0.80875  0.57968  0.64881  1.0000
  O   O12       1.0  0.69125  0.42032  0.14880  1.0000
  O   O13       1.0  0.31416  0.62781  0.17293  1.0000
  O   O14       1.0  0.18584  0.37219  0.67293  1.0000
  O   O15       1.0  0.81416  0.87219  0.82707  1.0000
  O   O16       1.0  0.68584  0.12781  0.32707  1.0000
  O   O17       1.0  0.64046  0.76364  0.14157  1.0000
  O   O18       1.0  0.85954  0.23636  0.64157  1.0000
  O   O19       1.0  0.14046  0.73636  0.85843  1.0000
  O   O20       1.0  0.35954  0.26364  0.35843  1.0000
  O   O21       1.0  0.53597  0.03136  0.10713  1.0000
  O   O22       1.0  0.96403  0.96864  0.60713  1.0000
  O   O23       1.0  0.03597  0.46863  0.89287  1.0000
  O   O24       1.0  0.46403  0.53136  0.39287  1.0000
