data_image0
_chemical_formula_structural       U4H28C36N12O20
_chemical_formula_sum              "U4 H28 C36 N12 O20"
_cell_length_a       8.87241
_cell_length_b       9.42838
_cell_length_c       12.6986
_cell_angle_alpha    90.0001
_cell_angle_beta     90.0001
_cell_angle_gamma    97.6869

_space_group_name_H-M_alt    "P 1"
_space_group_IT_number       1

loop_
  _space_group_symop_operation_xyz
  'x, y, z'

loop_
  _atom_site_type_symbol
  _atom_site_label
  _atom_site_symmetry_multiplicity
  _atom_site_fract_x
  _atom_site_fract_y
  _atom_site_fract_z
  _atom_site_occupancy
  U   U1        1.0  0.20437  0.47421  0.94610  1.0000
  U   U2        1.0  0.79563  0.02579  0.44611  1.0000
  U   U3        1.0  0.79563  0.52579  0.05389  1.0000
  U   U4        1.0  0.20437  0.97422  0.55390  1.0000
  H   H1        1.0  0.08196  0.54310  0.16137  1.0000
  H   H2        1.0  0.91804  0.95690  0.66138  1.0000
  H   H3        1.0  0.91804  0.45690  0.83862  1.0000
  H   H4        1.0  0.08196  0.04310  0.33863  1.0000
  H   H5        1.0  0.10811  0.29625  0.41226  1.0000
  H   H6        1.0  0.89190  0.20375  0.91226  1.0000
  H   H7        1.0  0.89189  0.70375  0.58775  1.0000
  H   H8        1.0  0.10810  0.79626  0.08775  1.0000
  H   H9        1.0  0.21180  0.31913  0.23289  1.0000
  H   H10       1.0  0.78821  0.18087  0.73290  1.0000
  H   H11       1.0  0.78821  0.68086  0.76710  1.0000
  H   H12       1.0  0.21179  0.81914  0.26710  1.0000
  H   H13       1.0  0.41315  0.67320  0.50579  1.0000
  H   H14       1.0  0.58686  0.82680  0.00578  1.0000
  H   H15       1.0  0.58685  0.32680  0.49421  1.0000
  H   H16       1.0  0.41315  0.17320  0.99422  1.0000
  H   H17       1.0  0.52287  0.68837  0.32844  1.0000
  H   H18       1.0  0.47713  0.81164  0.82843  1.0000
  H   H19       1.0  0.47713  0.31163  0.67156  1.0000
  H   H20       1.0  0.52287  0.18836  0.17157  1.0000
  H   H21       1.0  0.98579  0.31814  0.55292  1.0000
  H   H22       1.0  0.01421  0.18185  0.05293  1.0000
  H   H23       1.0  0.01421  0.68186  0.44708  1.0000
  H   H24       1.0  0.98579  0.81814  0.94707  1.0000
  H   H25       1.0  0.35415  0.60891  0.66899  1.0000
  H   H26       1.0  0.64584  0.89109  0.16899  1.0000
  H   H27       1.0  0.64585  0.39109  0.33101  1.0000
  H   H28       1.0  0.35416  0.10891  0.83101  1.0000
  C   C1        1.0  0.44097  0.51287  0.16024  1.0000
  C   C2        1.0  0.55903  0.98713  0.66024  1.0000
  C   C3        1.0  0.55903  0.48713  0.83976  1.0000
  C   C4        1.0  0.44097  0.01287  0.33976  1.0000
  C   C5        1.0  0.37462  0.50519  0.26809  1.0000
  C   C6        1.0  0.62538  0.99482  0.76808  1.0000
  C   C7        1.0  0.62538  0.49481  0.73192  1.0000
  C   C8        1.0  0.37462  0.00518  0.23192  1.0000
  C   C9        1.0  0.19807  0.38285  0.39440  1.0000
  C   C10       1.0  0.80193  0.11715  0.89440  1.0000
  C   C11       1.0  0.80193  0.61715  0.60560  1.0000
  C   C12       1.0  0.19807  0.88285  0.10560  1.0000
  C   C13       1.0  0.25679  0.39568  0.29298  1.0000
  C   C14       1.0  0.74321  0.10433  0.79298  1.0000
  C   C15       1.0  0.74321  0.60432  0.70702  1.0000
  C   C16       1.0  0.25679  0.89568  0.20702  1.0000
  C   C17       1.0  0.25439  0.48206  0.47155  1.0000
  C   C18       1.0  0.74561  0.01794  0.97155  1.0000
  C   C19       1.0  0.74560  0.51793  0.52845  1.0000
  C   C20       1.0  0.25439  0.98206  0.02845  1.0000
  C   C21       1.0  0.37042  0.59322  0.44750  1.0000
  C   C22       1.0  0.62958  0.90678  0.94750  1.0000
  C   C23       1.0  0.62957  0.40678  0.55250  1.0000
  C   C24       1.0  0.37043  0.09322  0.05251  1.0000
  C   C25       1.0  0.43102  0.60329  0.34634  1.0000
  C   C26       1.0  0.56898  0.89672  0.84634  1.0000
  C   C27       1.0  0.56898  0.39671  0.65366  1.0000
  C   C28       1.0  0.43102  0.10329  0.15366  1.0000
  C   C29       1.0  0.06139  0.38363  0.60626  1.0000
  C   C30       1.0  0.93861  0.11636  0.10627  1.0000
  C   C31       1.0  0.93861  0.61637  0.39374  1.0000
  C   C32       1.0  0.06139  0.88364  0.89373  1.0000
  C   C33       1.0  0.25131  0.53319  0.66515  1.0000
  C   C34       1.0  0.74869  0.96681  0.16515  1.0000
  C   C35       1.0  0.74869  0.46681  0.33485  1.0000
  C   C36       1.0  0.25131  0.03319  0.83485  1.0000
  N   N1        1.0  0.19242  0.46863  0.57494  1.0000
  N   N2        1.0  0.80758  0.03137  0.07494  1.0000
  N   N3        1.0  0.80757  0.53137  0.42506  1.0000
  N   N4        1.0  0.19243  0.96863  0.92506  1.0000
  N   N5        1.0  0.04125  0.39538  0.70813  1.0000
  N   N6        1.0  0.95875  0.10461  0.20814  1.0000
  N   N7        1.0  0.95875  0.60461  0.29187  1.0000
  N   N8        1.0  0.04125  0.89539  0.79187  1.0000
  N   N9        1.0  0.16331  0.48876  0.74542  1.0000
  N   N10       1.0  0.83669  0.01123  0.24542  1.0000
  N   N11       1.0  0.83669  0.51124  0.25458  1.0000
  N   N12       1.0  0.16332  0.98877  0.75458  1.0000
  O   O1        1.0  0.14708  0.28112  0.94165  1.0000
  O   O2        1.0  0.85292  0.21888  0.44165  1.0000
  O   O3        1.0  0.85292  0.71888  0.05835  1.0000
  O   O4        1.0  0.14708  0.78112  0.55836  1.0000
  O   O5        1.0  0.27801  0.66331  0.94065  1.0000
  O   O6        1.0  0.72199  0.83669  0.44066  1.0000
  O   O7        1.0  0.72199  0.33669  0.05935  1.0000
  O   O8        1.0  0.27801  0.16331  0.55934  1.0000
  O   O9        1.0  0.36300  0.44543  0.08679  1.0000
  O   O10       1.0  0.63700  0.05458  0.58679  1.0000
  O   O11       1.0  0.63700  0.55457  0.91321  1.0000
  O   O12       1.0  0.36300  0.94543  0.41321  1.0000
  O   O13       1.0  0.05065  0.50147  0.09270  1.0000
  O   O14       1.0  0.94935  0.99853  0.59270  1.0000
  O   O15       1.0  0.94935  0.49853  0.90730  1.0000
  O   O16       1.0  0.05065  0.00147  0.40730  1.0000
  O   O17       1.0  0.57267  0.58241  0.14588  1.0000
  O   O18       1.0  0.42733  0.91759  0.64588  1.0000
  O   O19       1.0  0.42733  0.41758  0.85412  1.0000
  O   O20       1.0  0.57267  0.08241  0.35412  1.0000
