data_image0
_chemical_formula_structural       Zn8P6H26C18N12O24
_chemical_formula_sum              "Zn8 P6 H26 C18 N12 O24"
_cell_length_a       9.62573
_cell_length_b       9.85963
_cell_length_c       12.3043
_cell_angle_alpha    76.5766
_cell_angle_beta     77.3908
_cell_angle_gamma    68.1725

_space_group_name_H-M_alt    "P 1"
_space_group_IT_number       1

loop_
  _space_group_symop_operation_xyz
  'x, y, z'

loop_
  _atom_site_type_symbol
  _atom_site_label
  _atom_site_symmetry_multiplicity
  _atom_site_fract_x
  _atom_site_fract_y
  _atom_site_fract_z
  _atom_site_occupancy
  Zn  Zn1       1.0  0.13695  0.72591  0.63505  1.0000
  Zn  Zn2       1.0  0.86305  0.27410  0.36495  1.0000
  Zn  Zn3       1.0  0.14697  0.29907  0.07368  1.0000
  Zn  Zn4       1.0  0.85303  0.70093  0.92632  1.0000
  Zn  Zn5       1.0  0.01329  0.81717  0.10416  1.0000
  Zn  Zn6       1.0  0.98671  0.18283  0.89584  1.0000
  Zn  Zn7       1.0  0.34092  0.52337  0.90411  1.0000
  Zn  Zn8       1.0  0.65908  0.47663  0.09589  1.0000
  P   P1        1.0  0.11215  0.44681  0.81184  1.0000
  P   P2        1.0  0.88785  0.55319  0.18816  1.0000
  P   P3        1.0  0.10867  0.84393  0.84651  1.0000
  P   P4        1.0  0.89133  0.15607  0.15349  1.0000
  P   P5        1.0  0.32324  0.59045  0.15670  1.0000
  P   P6        1.0  0.67677  0.40955  0.84330  1.0000
  H   H1        1.0  0.17176  0.47449  0.24476  1.0000
  H   H2        1.0  0.82824  0.52551  0.75524  1.0000
  H   H3        1.0  0.60560  0.60703  0.34719  1.0000
  H   H4        1.0  0.39439  0.39297  0.65281  1.0000
  H   H5        1.0  0.84506  0.77795  0.32386  1.0000
  H   H6        1.0  0.15494  0.22205  0.67614  1.0000
  H   H7        1.0  0.68559  0.02438  0.14233  1.0000
  H   H8        1.0  0.31441  0.97562  0.85767  1.0000
  H   H9        1.0  0.31408  0.69377  0.37823  1.0000
  H   H10       1.0  0.68592  0.30623  0.62177  1.0000
  H   H11       1.0  0.70616  0.62728  0.51346  1.0000
  H   H12       1.0  0.29383  0.37272  0.48654  1.0000
  H   H13       1.0  0.45306  0.71763  0.67458  1.0000
  H   H14       1.0  0.54694  0.28237  0.32542  1.0000
  H   H15       1.0  0.07949  0.63522  0.41064  1.0000
  H   H16       1.0  0.92051  0.36478  0.58936  1.0000
  H   H17       1.0  0.65922  0.98296  0.43935  1.0000
  H   H18       1.0  0.34077  0.01704  0.56065  1.0000
  H   H19       1.0  0.80597  0.94904  0.62151  1.0000
  H   H20       1.0  0.19403  0.05096  0.37849  1.0000
  H   H21       1.0  0.47834  0.27428  0.10446  1.0000
  H   H22       1.0  0.52166  0.72572  0.89554  1.0000
  H   H23       1.0  0.58272  0.80832  0.16879  1.0000
  H   H24       1.0  0.41728  0.19168  0.83122  1.0000
  H   H25       1.0  0.28306  0.94282  0.13876  1.0000
  H   H26       1.0  0.71694  0.05718  0.86125  1.0000
  C   C1        1.0  0.38335  0.69116  0.43772  1.0000
  C   C2        1.0  0.61665  0.30884  0.56227  1.0000
  C   C3        1.0  0.58713  0.65779  0.50978  1.0000
  C   C4        1.0  0.41286  0.34221  0.49022  1.0000
  C   C5        1.0  0.46208  0.70291  0.58848  1.0000
  C   C6        1.0  0.53792  0.29709  0.41152  1.0000
  C   C7        1.0  0.98602  0.72326  0.44644  1.0000
  C   C8        1.0  0.01398  0.27674  0.55356  1.0000
  C   C9        1.0  0.76685  0.90598  0.46212  1.0000
  C   C10       1.0  0.23314  0.09402  0.53789  1.0000
  C   C11       1.0  0.83970  0.88893  0.55134  1.0000
  C   C12       1.0  0.16030  0.11107  0.44866  1.0000
  C   C13       1.0  0.46459  0.16712  0.11874  1.0000
  C   C14       1.0  0.53540  0.83288  0.88126  1.0000
  C   C15       1.0  0.51549  0.92445  0.15291  1.0000
  C   C16       1.0  0.48451  0.07555  0.84709  1.0000
  C   C17       1.0  0.36668  0.99286  0.13735  1.0000
  C   C18       1.0  0.63332  0.00714  0.86266  1.0000
  N   N1        1.0  0.33514  0.72329  0.54238  1.0000
  N   N2        1.0  0.66486  0.27672  0.45762  1.0000
  N   N3        1.0  0.53517  0.65181  0.41578  1.0000
  N   N4        1.0  0.46482  0.34819  0.58422  1.0000
  N   N5        1.0  0.97661  0.77421  0.54043  1.0000
  N   N6        1.0  0.02339  0.22579  0.45957  1.0000
  N   N7        1.0  0.86063  0.80068  0.39783  1.0000
  N   N8        1.0  0.13937  0.19932  0.60217  1.0000
  N   N9        1.0  0.33627  0.14495  0.11591  1.0000
  N   N10       1.0  0.66373  0.85505  0.88409  1.0000
  N   N11       1.0  0.57425  0.03600  0.14130  1.0000
  N   N12       1.0  0.42575  0.96400  0.85870  1.0000
  O   O1        1.0  0.20839  0.51075  0.71052  1.0000
  O   O2        1.0  0.79161  0.48925  0.28948  1.0000
  O   O3        1.0  0.03782  0.86713  0.74018  1.0000
  O   O4        1.0  0.96218  0.13287  0.25982  1.0000
  O   O5        1.0  0.18335  0.42476  0.92126  1.0000
  O   O6        1.0  0.81666  0.57524  0.07874  1.0000
  O   O7        1.0  0.00061  0.78830  0.95067  1.0000
  O   O8        1.0  0.99939  0.21170  0.04934  1.0000
  O   O9        1.0  0.94671  0.55493  0.82397  1.0000
  O   O10       1.0  0.05329  0.44507  0.17603  1.0000
  O   O11       1.0  0.11644  0.29397  0.79668  1.0000
  O   O12       1.0  0.88356  0.70603  0.20332  1.0000
  O   O13       1.0  0.12015  0.98725  0.86873  1.0000
  O   O14       1.0  0.87985  0.01275  0.13127  1.0000
  O   O15       1.0  0.21782  0.75245  0.13243  1.0000
  O   O16       1.0  0.78218  0.24755  0.86757  1.0000
  O   O17       1.0  0.47298  0.58732  0.18388  1.0000
  O   O18       1.0  0.52702  0.41268  0.81612  1.0000
  O   O19       1.0  0.27017  0.73049  0.83838  1.0000
  O   O20       1.0  0.72983  0.26951  0.16162  1.0000
  O   O21       1.0  0.34775  0.49975  0.06415  1.0000
  O   O22       1.0  0.65225  0.50024  0.93585  1.0000
  O   O23       1.0  0.24596  0.50736  0.26874  1.0000
  O   O24       1.0  0.75404  0.49264  0.73126  1.0000
