data_image0
_chemical_formula_structural       Mn2H16C24N16
_chemical_formula_sum              "Mn2 H16 C24 N16"
_cell_length_a       6.67756
_cell_length_b       8.34542
_cell_length_c       11.3829
_cell_angle_alpha    108.631
_cell_angle_beta     87.013
_cell_angle_gamma    90.3401

_space_group_name_H-M_alt    "P 1"
_space_group_IT_number       1

loop_
  _space_group_symop_operation_xyz
  'x, y, z'

loop_
  _atom_site_type_symbol
  _atom_site_label
  _atom_site_symmetry_multiplicity
  _atom_site_fract_x
  _atom_site_fract_y
  _atom_site_fract_z
  _atom_site_occupancy
  Mn  Mn1       1.0  0.69923  0.79455  0.98034  1.0000
  Mn  Mn2       1.0  0.20508  0.20729  0.01872  1.0000
  H   H1        1.0  0.13072  0.70633  0.05697  1.0000
  H   H2        1.0  0.64084  0.27663  0.90190  1.0000
  H   H3        1.0  0.25520  0.68935  0.25405  1.0000
  H   H4        1.0  0.74978  0.30844  0.69788  1.0000
  H   H5        1.0  0.04113  0.81427  0.45422  1.0000
  H   H6        1.0  0.52297  0.19273  0.51660  1.0000
  H   H7        1.0  0.72628  0.96700  0.44389  1.0000
  H   H8        1.0  0.21332  0.04315  0.54979  1.0000
  H   H9        1.0  0.15555  0.26238  0.47976  1.0000
  H   H10       1.0  0.63733  0.75956  0.53432  1.0000
  H   H11       1.0  0.82983  0.42609  0.53965  1.0000
  H   H12       1.0  0.31071  0.59966  0.49931  1.0000
  H   H13       1.0  0.62870  0.46715  0.37017  1.0000
  H   H14       1.0  0.13401  0.54358  0.68498  1.0000
  H   H15       1.0  0.77140  0.36071  0.15161  1.0000
  H   H16       1.0  0.29230  0.63157  0.88513  1.0000
  C   C1        1.0  0.04249  0.75839  0.14369  1.0000
  C   C2        1.0  0.54894  0.23040  0.82189  1.0000
  C   C3        1.0  0.11241  0.75165  0.25496  1.0000
  C   C4        1.0  0.60961  0.24547  0.70714  1.0000
  C   C5        1.0  0.99631  0.82159  0.36533  1.0000
  C   C6        1.0  0.48586  0.18175  0.60813  1.0000
  C   C7        1.0  0.81888  0.90450  0.36036  1.0000
  C   C8        1.0  0.31041  0.09947  0.62577  1.0000
  C   C9        1.0  0.75765  0.90730  0.24562  1.0000
  C   C10       1.0  0.25912  0.08900  0.74367  1.0000
  C   C11       1.0  0.57948  0.99005  0.22790  1.0000
  C   C12       1.0  0.07960  0.00510  0.77133  1.0000
  C   C13       1.0  0.31272  0.12540  0.24023  1.0000
  C   C14       1.0  0.81191  0.87192  0.75924  1.0000
  C   C15       1.0  0.13047  0.22607  0.28499  1.0000
  C   C16       1.0  0.63189  0.77736  0.72637  1.0000
  C   C17       1.0  0.06518  0.28696  0.41048  1.0000
  C   C18       1.0  0.55472  0.72740  0.60852  1.0000
  C   C19       1.0  0.88450  0.37661  0.44273  1.0000
  C   C20       1.0  0.37544  0.63966  0.59000  1.0000
  C   C21       1.0  0.77313  0.40202  0.34960  1.0000
  C   C22       1.0  0.27813  0.60628  0.69136  1.0000
  C   C23       1.0  0.85042  0.34130  0.22737  1.0000
  C   C24       1.0  0.36448  0.65734  0.80556  1.0000
  N   N1        1.0  0.53915  0.97705  0.10855  1.0000
  N   N2        1.0  0.03400  0.00174  0.88833  1.0000
  N   N3        1.0  0.36549  0.06393  0.11676  1.0000
  N   N4        1.0  0.85968  0.91601  0.88103  1.0000
  N   N5        1.0  0.44188  0.08193  0.31227  1.0000
  N   N6        1.0  0.94510  0.92592  0.68817  1.0000
  N   N7        1.0  0.86370  0.82825  0.13585  1.0000
  N   N8        1.0  0.37580  0.15783  0.84097  1.0000
  N   N9        1.0  0.02524  0.25679  0.19582  1.0000
  N   N10       1.0  0.54027  0.74057  0.82533  1.0000
  N   N11       1.0  0.54208  0.62990  0.03291  1.0000
  N   N12       1.0  0.99196  0.37507  0.97454  1.0000
  N   N13       1.0  0.47872  0.52439  0.07245  1.0000
  N   N14       1.0  0.95025  0.46811  0.92013  1.0000
  N   N15       1.0  0.40862  0.41712  0.10967  1.0000
  N   N16       1.0  0.90619  0.56196  0.86567  1.0000
