data_image0
_chemical_formula_structural       Cu2H16C24N12O14
_chemical_formula_sum              "Cu2 H16 C24 N12 O14"
_cell_length_a       8.3578
_cell_length_b       8.3577
_cell_length_c       12.2509
_cell_angle_alpha    72.6669
_cell_angle_beta     72.6653
_cell_angle_gamma    66.5581

_space_group_name_H-M_alt    "P 1"
_space_group_IT_number       1

loop_
  _space_group_symop_operation_xyz
  'x, y, z'

loop_
  _atom_site_type_symbol
  _atom_site_label
  _atom_site_symmetry_multiplicity
  _atom_site_fract_x
  _atom_site_fract_y
  _atom_site_fract_z
  _atom_site_occupancy
  Cu  Cu1       1.0  1.00000  0.00000  0.00000  1.0000
  Cu  Cu2       1.0  0.00000  1.00000  0.50000  1.0000
  H   H1        1.0  0.61535  0.60788  0.83114  1.0000
  H   H2        1.0  0.60792  0.61532  0.33114  1.0000
  H   H3        1.0  0.38465  0.39212  0.16886  1.0000
  H   H4        1.0  0.39208  0.38468  0.66886  1.0000
  H   H5        1.0  0.76289  0.61465  0.98111  1.0000
  H   H6        1.0  0.61467  0.76289  0.48111  1.0000
  H   H7        1.0  0.23710  0.38535  0.01889  1.0000
  H   H8        1.0  0.38534  0.23711  0.51889  1.0000
  H   H9        1.0  0.57595  0.78554  0.13808  1.0000
  H   H10       1.0  0.78556  0.57593  0.63810  1.0000
  H   H11       1.0  0.42405  0.21447  0.86192  1.0000
  H   H12       1.0  0.21444  0.42408  0.36190  1.0000
  H   H13       1.0  0.25101  0.94157  0.14264  1.0000
  H   H14       1.0  0.94154  0.25104  0.64265  1.0000
  H   H15       1.0  0.74898  0.05844  0.85736  1.0000
  H   H16       1.0  0.05846  0.74897  0.35735  1.0000
  C   C1        1.0  0.35788  0.77583  0.90776  1.0000
  C   C2        1.0  0.77584  0.35788  0.40778  1.0000
  C   C3        1.0  0.64211  0.22416  0.09224  1.0000
  C   C4        1.0  0.22416  0.64212  0.59222  1.0000
  C   C5        1.0  0.53959  0.68034  0.90110  1.0000
  C   C6        1.0  0.68036  0.53959  0.40111  1.0000
  C   C7        1.0  0.46040  0.31967  0.09890  1.0000
  C   C8        1.0  0.31965  0.46041  0.59889  1.0000
  C   C9        1.0  0.62077  0.68307  0.98433  1.0000
  C   C10       1.0  0.68310  0.62078  0.48433  1.0000
  C   C11       1.0  0.37923  0.31693  0.01568  1.0000
  C   C12       1.0  0.31690  0.37923  0.51567  1.0000
  C   C13       1.0  0.51774  0.77812  0.07215  1.0000
  C   C14       1.0  0.77812  0.51775  0.57216  1.0000
  C   C15       1.0  0.48226  0.22187  0.92786  1.0000
  C   C16       1.0  0.22188  0.48225  0.42784  1.0000
  C   C17       1.0  0.33646  0.86752  0.07473  1.0000
  C   C18       1.0  0.86750  0.33646  0.57474  1.0000
  C   C19       1.0  0.66354  0.13248  0.92527  1.0000
  C   C20       1.0  0.13251  0.66354  0.42525  1.0000
  C   C21       1.0  0.26445  0.79144  0.82030  1.0000
  C   C22       1.0  0.79146  0.26444  0.32031  1.0000
  C   C23       1.0  0.73555  0.20855  0.17970  1.0000
  C   C24       1.0  0.20855  0.73555  0.67969  1.0000
  N   N1        1.0  0.25844  0.86671  0.99387  1.0000
  N   N2        1.0  0.86671  0.25844  0.49388  1.0000
  N   N3        1.0  0.74156  0.13329  0.00613  1.0000
  N   N4        1.0  0.13329  0.74156  0.50612  1.0000
  N   N5        1.0  0.11718  0.91830  0.79595  1.0000
  N   N6        1.0  0.91831  0.11719  0.29595  1.0000
  N   N7        1.0  0.88282  0.08170  0.20405  1.0000
  N   N8        1.0  0.08169  0.88281  0.70405  1.0000
  N   N9        1.0  0.98262  0.64261  0.12733  1.0000
  N   N10       1.0  0.64261  0.98262  0.62732  1.0000
  N   N11       1.0  0.01738  0.35739  0.87267  1.0000
  N   N12       1.0  0.35739  0.01739  0.37268  1.0000
  O   O1        1.0  0.32958  0.67041  0.74999  1.0000
  O   O2        1.0  0.67042  0.32958  0.25001  1.0000
  O   O3        1.0  0.93223  0.77815  0.04238  1.0000
  O   O4        1.0  0.77816  0.93224  0.54238  1.0000
  O   O5        1.0  0.06776  0.22186  0.95762  1.0000
  O   O6        1.0  0.22184  0.06776  0.45763  1.0000
  O   O7        1.0  0.92960  0.51584  0.14234  1.0000
  O   O8        1.0  0.51584  0.92960  0.64233  1.0000
  O   O9        1.0  0.07040  0.48416  0.85766  1.0000
  O   O10       1.0  0.48416  0.07041  0.35767  1.0000
  O   O11       1.0  0.07854  0.64444  0.18749  1.0000
  O   O12       1.0  0.64442  0.07851  0.68751  1.0000
  O   O13       1.0  0.92146  0.35556  0.81251  1.0000
  O   O14       1.0  0.35557  0.92149  0.31249  1.0000
