data_image0
_chemical_formula_structural       Cd2H24C24O12
_chemical_formula_sum              "Cd2 H24 C24 O12"
_cell_length_a       5.35681
_cell_length_b       6.45951
_cell_length_c       19.4264
_cell_angle_alpha    92.7816
_cell_angle_beta     90.0425
_cell_angle_gamma    114.474

_space_group_name_H-M_alt    "P 1"
_space_group_IT_number       1

loop_
  _space_group_symop_operation_xyz
  'x, y, z'

loop_
  _atom_site_type_symbol
  _atom_site_label
  _atom_site_symmetry_multiplicity
  _atom_site_fract_x
  _atom_site_fract_y
  _atom_site_fract_z
  _atom_site_occupancy
  Cd  Cd1       1.0  0.31858  0.00034  0.25011  1.0000
  Cd  Cd2       1.0  0.68144  0.99966  0.74988  1.0000
  H   H1        1.0  0.08407  0.56411  0.37056  1.0000
  H   H2        1.0  0.52076  0.43636  0.12937  1.0000
  H   H3        1.0  0.91590  0.43587  0.62944  1.0000
  H   H4        1.0  0.47919  0.56363  0.87065  1.0000
  H   H5        1.0  0.66305  0.09405  0.41196  1.0000
  H   H6        1.0  0.56858  0.90647  0.08816  1.0000
  H   H7        1.0  0.33694  0.90592  0.58804  1.0000
  H   H8        1.0  0.43145  0.09355  0.91184  1.0000
  H   H9        1.0  0.31876  0.07913  0.48798  1.0000
  H   H10       1.0  0.23890  0.92102  0.01186  1.0000
  H   H11       1.0  0.68123  0.92084  0.51202  1.0000
  H   H12       1.0  0.76111  0.07900  0.98814  1.0000
  H   H13       1.0  0.90032  0.74284  0.43236  1.0000
  H   H14       1.0  0.15817  0.25781  0.06785  1.0000
  H   H15       1.0  0.09965  0.25712  0.56764  1.0000
  H   H16       1.0  0.84182  0.74222  0.93215  1.0000
  H   H17       1.0  0.79825  0.36772  0.19988  1.0000
  H   H18       1.0  0.43097  0.63249  0.30030  1.0000
  H   H19       1.0  0.20176  0.63231  0.80012  1.0000
  H   H20       1.0  0.56904  0.36750  0.69969  1.0000
  H   H21       1.0  0.81558  0.12489  0.17911  1.0000
  H   H22       1.0  0.69112  0.87544  0.32100  1.0000
  H   H23       1.0  0.18445  0.87513  0.82089  1.0000
  H   H24       1.0  0.30890  0.12456  0.67900  1.0000
  C   C1        1.0  0.10802  0.25050  0.33352  1.0000
  C   C2        1.0  0.85769  0.74988  0.16671  1.0000
  C   C3        1.0  0.89198  0.74949  0.66648  1.0000
  C   C4        1.0  0.14240  0.25019  0.83331  1.0000
  C   C5        1.0  0.98171  0.37977  0.37335  1.0000
  C   C6        1.0  0.60240  0.62077  0.12669  1.0000
  C   C7        1.0  0.01825  0.62020  0.62664  1.0000
  C   C8        1.0  0.39756  0.37927  0.87331  1.0000
  C   C9        1.0  0.75742  0.28004  0.41184  1.0000
  C   C10       1.0  0.47744  0.72050  0.08821  1.0000
  C   C11       1.0  0.24255  0.71993  0.58815  1.0000
  C   C12       1.0  0.52251  0.27953  0.91177  1.0000
  C   C13       1.0  0.62868  0.39605  0.45513  1.0000
  C   C14       1.0  0.23265  0.60421  0.04492  1.0000
  C   C15       1.0  0.37130  0.60392  0.54487  1.0000
  C   C16       1.0  0.76735  0.39574  0.95509  1.0000
  C   C17       1.0  0.39957  0.26437  0.49383  1.0000
  C   C18       1.0  0.13481  0.73563  0.00609  1.0000
  C   C19       1.0  0.60042  0.73560  0.50617  1.0000
  C   C20       1.0  0.86524  0.26436  0.99392  1.0000
  C   C21       1.0  0.72609  0.63509  0.46200  1.0000
  C   C22       1.0  0.09144  0.36523  0.03813  1.0000
  C   C23       1.0  0.27390  0.36488  0.53800  1.0000
  C   C24       1.0  0.90858  0.63477  0.96188  1.0000
  O   O1        1.0  0.31207  0.35787  0.29540  1.0000
  O   O2        1.0  0.95382  0.64238  0.20501  1.0000
  O   O3        1.0  0.68796  0.64214  0.70460  1.0000
  O   O4        1.0  0.04620  0.35758  0.79500  1.0000
  O   O5        1.0  0.01919  0.03267  0.33635  1.0000
  O   O6        1.0  0.98681  0.96768  0.16384  1.0000
  O   O7        1.0  0.98082  0.96730  0.66365  1.0000
  O   O8        1.0  0.01320  0.03242  0.83614  1.0000
  O   O9        1.0  0.68834  0.19902  0.18989  1.0000
  O   O10       1.0  0.48975  0.80125  0.31018  1.0000
  O   O11       1.0  0.31168  0.80100  0.81010  1.0000
  O   O12       1.0  0.51025  0.19875  0.68982  1.0000
