data_image0
_chemical_formula_structural       H16Pb2C20Br4N4
_chemical_formula_sum              "H16 Pb2 C20 Br4 N4"
_cell_length_a       8.31729
_cell_length_b       9.2066
_cell_length_c       9.20668
_cell_angle_alpha    64.1523
_cell_angle_beta     78.3084
_cell_angle_gamma    78.3077

_space_group_name_H-M_alt    "P 1"
_space_group_IT_number       1

loop_
  _space_group_symop_operation_xyz
  'x, y, z'

loop_
  _atom_site_type_symbol
  _atom_site_label
  _atom_site_symmetry_multiplicity
  _atom_site_fract_x
  _atom_site_fract_y
  _atom_site_fract_z
  _atom_site_occupancy
  H   H1        1.0  0.93541  0.98365  0.33277  1.0000
  H   H2        1.0  0.56460  0.66722  0.01636  1.0000
  H   H3        1.0  0.06460  0.01636  0.66722  1.0000
  H   H4        1.0  0.43540  0.33278  0.98364  1.0000
  H   H5        1.0  0.80440  0.85564  0.62386  1.0000
  H   H6        1.0  0.69560  0.37613  0.14438  1.0000
  H   H7        1.0  0.19560  0.14437  0.37614  1.0000
  H   H8        1.0  0.30440  0.62387  0.85563  1.0000
  H   H9        1.0  0.92749  0.57264  0.80161  1.0000
  H   H10       1.0  0.57250  0.19839  0.42737  1.0000
  H   H11       1.0  0.07250  0.42736  0.19839  1.0000
  H   H12       1.0  0.42750  0.80161  0.57264  1.0000
  H   H13       1.0  0.16324  0.43184  0.68437  1.0000
  H   H14       1.0  0.33676  0.31563  0.56816  1.0000
  H   H15       1.0  0.83676  0.56816  0.31563  1.0000
  H   H16       1.0  0.66324  0.68437  0.43184  1.0000
  Pb  Pb1       1.0  0.25000  0.93611  0.06389  1.0000
  Pb  Pb2       1.0  0.75000  0.06389  0.93610  1.0000
  C   C1        1.0  0.98257  0.86146  0.41556  1.0000
  C   C2        1.0  0.51744  0.58443  0.13855  1.0000
  C   C3        1.0  0.01743  0.13854  0.58445  1.0000
  C   C4        1.0  0.48256  0.41556  0.86145  1.0000
  C   C5        1.0  0.91075  0.79023  0.57656  1.0000
  C   C6        1.0  0.58925  0.42343  0.20978  1.0000
  C   C7        1.0  0.08925  0.20978  0.42343  1.0000
  C   C8        1.0  0.41075  0.57656  0.79023  1.0000
  C   C9        1.0  0.97797  0.63378  0.67429  1.0000
  C   C10       1.0  0.52202  0.32570  0.36622  1.0000
  C   C11       1.0  0.02203  0.36621  0.32572  1.0000
  C   C12       1.0  0.47798  0.67430  0.63378  1.0000
  C   C13       1.0  0.11186  0.55422  0.60780  1.0000
  C   C14       1.0  0.38814  0.39220  0.44577  1.0000
  C   C15       1.0  0.88814  0.44578  0.39220  1.0000
  C   C16       1.0  0.61185  0.60780  0.55423  1.0000
  C   C17       1.0  0.17854  0.63326  0.44467  1.0000
  C   C18       1.0  0.32146  0.55534  0.36675  1.0000
  C   C19       1.0  0.82145  0.36674  0.55534  1.0000
  C   C20       1.0  0.67854  0.44467  0.63325  1.0000
  Br  Br1       1.0  0.02840  0.76865  0.97947  1.0000
  Br  Br2       1.0  0.47161  0.02051  0.23134  1.0000
  Br  Br3       1.0  0.97160  0.23134  0.02053  1.0000
  Br  Br4       1.0  0.52840  0.97949  0.76864  1.0000
  N   N1        1.0  0.11338  0.78571  0.35195  1.0000
  N   N2        1.0  0.38663  0.64805  0.21429  1.0000
  N   N3        1.0  0.88662  0.21430  0.64805  1.0000
  N   N4        1.0  0.61337  0.35195  0.78571  1.0000
