data_image0
_chemical_formula_structural       Zn2H16C12N4Cl4O4
_chemical_formula_sum              "Zn2 H16 C12 N4 Cl4 O4"
_cell_length_a       4.87826
_cell_length_b       9.97315
_cell_length_c       10.3786
_cell_angle_alpha    90.0001
_cell_angle_beta     90.0002
_cell_angle_gamma    102.339

_space_group_name_H-M_alt    "P 1"
_space_group_IT_number       1

loop_
  _space_group_symop_operation_xyz
  'x, y, z'

loop_
  _atom_site_type_symbol
  _atom_site_label
  _atom_site_symmetry_multiplicity
  _atom_site_fract_x
  _atom_site_fract_y
  _atom_site_fract_z
  _atom_site_occupancy
  Zn  Zn1       1.0  0.96874  0.06834  0.23724  1.0000
  Zn  Zn2       1.0  0.96874  0.56834  0.76275  1.0000
  H   H1        1.0  0.53344  0.37199  0.05851  1.0000
  H   H2        1.0  0.53344  0.87199  0.94149  1.0000
  H   H3        1.0  0.50380  0.26395  0.19831  1.0000
  H   H4        1.0  0.50380  0.76395  0.80169  1.0000
  H   H5        1.0  0.83121  0.37405  0.15872  1.0000
  H   H6        1.0  0.83121  0.87405  0.84127  1.0000
  H   H7        1.0  0.70737  0.43541  0.41697  1.0000
  H   H8        1.0  0.70736  0.93541  0.58304  1.0000
  H   H9        1.0  0.47003  0.65623  0.49073  1.0000
  H   H10       1.0  0.47003  0.15623  0.50927  1.0000
  H   H11       1.0  0.30432  0.57055  0.09386  1.0000
  H   H12       1.0  0.30431  0.07055  0.90614  1.0000
  H   H13       1.0  0.08678  0.76548  0.36732  1.0000
  H   H14       1.0  0.08677  0.26548  0.63268  1.0000
  H   H15       1.0  0.07339  0.74765  0.19715  1.0000
  H   H16       1.0  0.07339  0.24765  0.80285  1.0000
  C   C1        1.0  0.60373  0.36357  0.15746  1.0000
  C   C2        1.0  0.60373  0.86357  0.84254  1.0000
  C   C3        1.0  0.58886  0.49710  0.36343  1.0000
  C   C4        1.0  0.58884  0.99710  0.63657  1.0000
  C   C5        1.0  0.47412  0.60516  0.39896  1.0000
  C   C6        1.0  0.47411  0.10516  0.60104  1.0000
  C   C7        1.0  0.38247  0.56288  0.19113  1.0000
  C   C8        1.0  0.38247  0.06288  0.80887  1.0000
  C   C9        1.0  0.21449  0.76175  0.28076  1.0000
  C   C10       1.0  0.21449  0.26175  0.71924  1.0000
  C   C11       1.0  0.42773  0.89749  0.26707  1.0000
  C   C12       1.0  0.42772  0.39748  0.73293  1.0000
  N   N1        1.0  0.52870  0.47285  0.23411  1.0000
  N   N2        1.0  0.52869  0.97285  0.76589  1.0000
  N   N3        1.0  0.34495  0.64387  0.29054  1.0000
  N   N4        1.0  0.34494  0.14387  0.70946  1.0000
  Cl  Cl1       1.0  0.93689  0.13672  0.03328  1.0000
  Cl  Cl2       1.0  0.93690  0.63673  0.96671  1.0000
  Cl  Cl3       1.0  0.01070  0.23060  0.38905  1.0000
  Cl  Cl4       1.0  0.01070  0.73061  0.61096  1.0000
  O   O1        1.0  0.33917  0.00672  0.25177  1.0000
  O   O2        1.0  0.33917  0.50672  0.74823  1.0000
  O   O3        1.0  0.68674  0.89348  0.27220  1.0000
  O   O4        1.0  0.68674  0.39348  0.72780  1.0000
