data_image0
_chemical_formula_structural       Cu2H40C36N8O8
_chemical_formula_sum              "Cu2 H40 C36 N8 O8"
_cell_length_a       7.61488
_cell_length_b       11.0593
_cell_length_c       11.1513
_cell_angle_alpha    92.8766
_cell_angle_beta     93.3613
_cell_angle_gamma    106.709

_space_group_name_H-M_alt    "P 1"
_space_group_IT_number       1

loop_
  _space_group_symop_operation_xyz
  'x, y, z'

loop_
  _atom_site_type_symbol
  _atom_site_label
  _atom_site_symmetry_multiplicity
  _atom_site_fract_x
  _atom_site_fract_y
  _atom_site_fract_z
  _atom_site_occupancy
  Cu  Cu1       1.0  1.00000  0.50000  0.50000  1.0000
  Cu  Cu2       1.0  0.00000  0.00000  0.00000  1.0000
  H   H1        1.0  0.68412  0.25057  0.56115  1.0000
  H   H2        1.0  0.31588  0.74942  0.43886  1.0000
  H   H3        1.0  0.94700  0.05877  0.29182  1.0000
  H   H4        1.0  0.05300  0.94123  0.70818  1.0000
  H   H5        1.0  0.44083  0.46657  0.89718  1.0000
  H   H6        1.0  0.55917  0.53344  0.10282  1.0000
  H   H7        1.0  0.35126  0.59816  0.89943  1.0000
  H   H8        1.0  0.64875  0.40184  0.10057  1.0000
  H   H9        1.0  0.58600  0.61869  0.87001  1.0000
  H   H10       1.0  0.41400  0.38131  0.12999  1.0000
  H   H11       1.0  0.02814  0.15636  0.67401  1.0000
  H   H12       1.0  0.97187  0.84364  0.32599  1.0000
  H   H13       1.0  0.24852  0.46185  0.70498  1.0000
  H   H14       1.0  0.75148  0.53815  0.29502  1.0000
  H   H15       1.0  0.38458  0.61490  0.67774  1.0000
  H   H16       1.0  0.61542  0.38510  0.32226  1.0000
  H   H17       1.0  0.72403  0.63736  0.62093  1.0000
  H   H18       1.0  0.27596  0.36264  0.37907  1.0000
  H   H19       1.0  0.37043  0.27264  0.66512  1.0000
  H   H20       1.0  0.62957  0.72736  0.33488  1.0000
  H   H21       1.0  0.40926  0.96147  0.39028  1.0000
  H   H22       1.0  0.59075  0.03853  0.60971  1.0000
  H   H23       1.0  0.37105  0.11106  0.41468  1.0000
  H   H24       1.0  0.62896  0.88894  0.58532  1.0000
  H   H25       1.0  0.59812  0.10197  0.39387  1.0000
  H   H26       1.0  0.40188  0.89803  0.60614  1.0000
  H   H27       1.0  0.77042  0.15642  0.14369  1.0000
  H   H28       1.0  0.22958  0.84358  0.85631  1.0000
  H   H29       1.0  0.93290  0.39188  0.79421  1.0000
  H   H30       1.0  0.06710  0.60812  0.20578  1.0000
  H   H31       1.0  0.06090  0.38108  0.17370  1.0000
  H   H32       1.0  0.93910  0.61891  0.82629  1.0000
  H   H33       1.0  0.65030  0.76824  0.03702  1.0000
  H   H34       1.0  0.34969  0.23176  0.96298  1.0000
  H   H35       1.0  0.35427  0.80977  0.15376  1.0000
  H   H36       1.0  0.64573  0.19024  0.84624  1.0000
  H   H37       1.0  0.45540  0.16391  0.20487  1.0000
  H   H38       1.0  0.54460  0.83610  0.79513  1.0000
  H   H39       1.0  0.27439  0.01982  0.19988  1.0000
  H   H40       1.0  0.72562  0.98018  0.80012  1.0000
  C   C1        1.0  0.64647  0.33414  0.58892  1.0000
  C   C2        1.0  0.35352  0.66586  0.41108  1.0000
  C   C3        1.0  0.96896  0.03212  0.38293  1.0000
  C   C4        1.0  0.03104  0.96788  0.61707  1.0000
  C   C5        1.0  0.44529  0.55477  0.85491  1.0000
  C   C6        1.0  0.55471  0.44523  0.14509  1.0000
  C   C7        1.0  0.98738  0.12157  0.48003  1.0000
  C   C8        1.0  0.01262  0.87843  0.51997  1.0000
  C   C9        1.0  0.97193  0.25088  0.45678  1.0000
  C   C10       1.0  0.02807  0.74912  0.54322  1.0000
  C   C11       1.0  0.01885  0.08875  0.59763  1.0000
  C   C12       1.0  0.98116  0.91125  0.40237  1.0000
  C   C13       1.0  0.38689  0.52833  0.72103  1.0000
  C   C14       1.0  0.61311  0.47167  0.27897  1.0000
  C   C15       1.0  0.67365  0.53522  0.61788  1.0000
  C   C16       1.0  0.32635  0.46478  0.38211  1.0000
  C   C17       1.0  0.49135  0.34364  0.64076  1.0000
  C   C18       1.0  0.50865  0.65636  0.35924  1.0000
  C   C19       1.0  0.45183  0.05991  0.36575  1.0000
  C   C20       1.0  0.54817  0.94010  0.63425  1.0000
  C   C21       1.0  0.99914  0.37344  0.98158  1.0000
  C   C22       1.0  0.00086  0.62656  0.01842  1.0000
  C   C23       1.0  0.69798  0.05679  0.12644  1.0000
  C   C24       1.0  0.30202  0.94321  0.87357  1.0000
  C   C25       1.0  0.96163  0.44004  0.88414  1.0000
  C   C26       1.0  0.03837  0.55996  0.11586  1.0000
  C   C27       1.0  0.03692  0.43410  0.09779  1.0000
  C   C28       1.0  0.96308  0.56590  0.90220  1.0000
  C   C29       1.0  0.63136  0.85425  0.07702  1.0000
  C   C30       1.0  0.36864  0.14576  0.92299  1.0000
  C   C31       1.0  0.99593  0.23762  0.95950  1.0000
  C   C32       1.0  0.00407  0.76238  0.04050  1.0000
  C   C33       1.0  0.48574  0.87283  0.13432  1.0000
  C   C34       1.0  0.51426  0.12718  0.86568  1.0000
  C   C35       1.0  0.41883  0.06590  0.23082  1.0000
  C   C36       1.0  0.58118  0.93410  0.76919  1.0000
  N   N1        1.0  0.51105  0.47156  0.65846  1.0000
  N   N2        1.0  0.48894  0.52844  0.34153  1.0000
  N   N3        1.0  0.75927  0.45441  0.57462  1.0000
  N   N4        1.0  0.24072  0.54559  0.42538  1.0000
  N   N5        1.0  0.52986  0.00147  0.16402  1.0000
  N   N6        1.0  0.47014  0.99853  0.83599  1.0000
  N   N7        1.0  0.76295  0.96974  0.07228  1.0000
  N   N8        1.0  0.23705  0.03027  0.92772  1.0000
  O   O1        1.0  0.89953  0.27112  0.35865  1.0000
  O   O2        1.0  0.10046  0.72887  0.64135  1.0000
  O   O3        1.0  0.03852  0.33725  0.54428  1.0000
  O   O4        1.0  0.96148  0.66274  0.45572  1.0000
  O   O5        1.0  0.93444  0.17995  0.85904  1.0000
  O   O6        1.0  0.06556  0.82005  0.14095  1.0000
  O   O7        1.0  0.05680  0.18649  0.04902  1.0000
  O   O8        1.0  0.94320  0.81351  0.95098  1.0000
