data_image0
_chemical_formula_structural       Cd2H36C28N4O16F8
_chemical_formula_sum              "Cd2 H36 C28 N4 O16 F8"
_cell_length_a       5.18824
_cell_length_b       10.5956
_cell_length_c       16.8377
_cell_angle_alpha    90.0009
_cell_angle_beta     90.408
_cell_angle_gamma    90.0002

_space_group_name_H-M_alt    "P 1"
_space_group_IT_number       1

loop_
  _space_group_symop_operation_xyz
  'x, y, z'

loop_
  _atom_site_type_symbol
  _atom_site_label
  _atom_site_symmetry_multiplicity
  _atom_site_fract_x
  _atom_site_fract_y
  _atom_site_fract_z
  _atom_site_occupancy
  Cd  Cd1       1.0  1.00000  1.00000  1.00000  1.0000
  Cd  Cd2       1.0  0.50002  0.50000  0.50000  1.0000
  H   H1        1.0  0.09782  0.77691  0.11914  1.0000
  H   H2        1.0  0.40214  0.27692  0.38087  1.0000
  H   H3        1.0  0.90213  0.22309  0.88087  1.0000
  H   H4        1.0  0.59789  0.72308  0.61913  1.0000
  H   H5        1.0  0.22665  0.69928  0.30034  1.0000
  H   H6        1.0  0.27329  0.19928  0.19966  1.0000
  H   H7        1.0  0.77332  0.30071  0.69966  1.0000
  H   H8        1.0  0.72669  0.80072  0.80034  1.0000
  H   H9        1.0  0.47743  0.61992  0.24928  1.0000
  H   H10       1.0  0.02251  0.11993  0.25073  1.0000
  H   H11       1.0  0.52254  0.38008  0.75072  1.0000
  H   H12       1.0  0.97746  0.88008  0.74928  1.0000
  H   H13       1.0  0.16445  0.63094  0.20486  1.0000
  H   H14       1.0  0.33550  0.13095  0.29515  1.0000
  H   H15       1.0  0.83552  0.36905  0.79514  1.0000
  H   H16       1.0  0.66449  0.86905  0.70486  1.0000
  H   H17       1.0  0.61040  0.96066  0.21277  1.0000
  H   H18       1.0  0.88959  0.46068  0.28724  1.0000
  H   H19       1.0  0.38959  0.03934  0.78723  1.0000
  H   H20       1.0  0.11044  0.53934  0.71277  1.0000
  H   H21       1.0  0.77613  0.81502  0.22629  1.0000
  H   H22       1.0  0.72385  0.31504  0.27371  1.0000
  H   H23       1.0  0.22385  0.18497  0.77370  1.0000
  H   H24       1.0  0.27617  0.68498  0.72630  1.0000
  H   H25       1.0  0.57137  0.87155  0.30302  1.0000
  H   H26       1.0  0.92862  0.37156  0.19699  1.0000
  H   H27       1.0  0.42863  0.12845  0.69698  1.0000
  H   H28       1.0  0.07140  0.62844  0.80302  1.0000
  H   H29       1.0  0.77064  0.17186  0.09029  1.0000
  H   H30       1.0  0.72936  0.67187  0.40971  1.0000
  H   H31       1.0  0.22935  0.82814  0.90971  1.0000
  H   H32       1.0  0.27067  0.32815  0.59029  1.0000
  H   H33       1.0  0.56807  0.05198  0.09731  1.0000
  H   H34       1.0  0.93194  0.55199  0.40269  1.0000
  H   H35       1.0  0.43192  0.94802  0.90269  1.0000
  H   H36       1.0  0.06809  0.44803  0.59731  1.0000
  C   C1        1.0  0.85937  0.71105  0.97461  1.0000
  C   C2        1.0  0.64064  0.21105  0.52537  1.0000
  C   C3        1.0  0.14063  0.28894  0.02538  1.0000
  C   C4        1.0  0.35936  0.78895  0.47462  1.0000
  C   C5        1.0  0.67909  0.59997  0.98726  1.0000
  C   C6        1.0  0.82092  0.09998  0.51274  1.0000
  C   C7        1.0  0.32091  0.40002  0.01273  1.0000
  C   C8        1.0  0.17909  0.90001  0.48726  1.0000
  C   C9        1.0  0.63090  0.55280  0.06285  1.0000
  C   C10       1.0  0.86909  0.05279  0.43714  1.0000
  C   C11       1.0  0.36908  0.44721  0.93714  1.0000
  C   C12       1.0  0.13091  0.94720  0.56285  1.0000
  C   C13       1.0  0.45539  0.45584  0.07539  1.0000
  C   C14       1.0  0.04461  0.95584  0.42460  1.0000
  C   C15       1.0  0.54461  0.54416  0.92460  1.0000
  C   C16       1.0  0.95540  0.04416  0.57539  1.0000
  C   C17       1.0  0.25312  0.84020  0.13962  1.0000
  C   C18       1.0  0.24686  0.34022  0.36039  1.0000
  C   C19       1.0  0.74685  0.15980  0.86038  1.0000
  C   C20       1.0  0.75317  0.65979  0.63962  1.0000
  C   C21       1.0  0.30759  0.68033  0.24148  1.0000
  C   C22       1.0  0.19236  0.18034  0.25853  1.0000
  C   C23       1.0  0.69238  0.31966  0.75853  1.0000
  C   C24       1.0  0.80763  0.81966  0.74148  1.0000
  C   C25       1.0  0.59657  0.86632  0.23851  1.0000
  C   C26       1.0  0.90341  0.36634  0.26149  1.0000
  C   C27       1.0  0.40342  0.13368  0.76148  1.0000
  C   C28       1.0  0.09661  0.63368  0.73852  1.0000
  N   N1        1.0  0.38071  0.79838  0.20322  1.0000
  N   N2        1.0  0.11926  0.29840  0.29679  1.0000
  N   N3        1.0  0.61927  0.20161  0.79679  1.0000
  N   N4        1.0  0.88074  0.70160  0.70321  1.0000
  O   O1        1.0  0.78912  0.81151  0.01018  1.0000
  O   O2        1.0  0.71090  0.31151  0.48982  1.0000
  O   O3        1.0  0.21087  0.18849  0.98982  1.0000
  O   O4        1.0  0.28914  0.68850  0.51019  1.0000
  O   O5        1.0  0.05417  0.69446  0.93193  1.0000
  O   O6        1.0  0.44582  0.19446  0.56805  1.0000
  O   O7        1.0  0.94582  0.30555  0.06806  1.0000
  O   O8        1.0  0.55418  0.80554  0.43194  1.0000
  O   O9        1.0  0.29525  0.94283  0.10385  1.0000
  O   O10       1.0  0.20475  0.44285  0.39615  1.0000
  O   O11       1.0  0.70471  0.05715  0.89615  1.0000
  O   O12       1.0  0.79529  0.55713  0.60386  1.0000
  O   O13       1.0  0.74901  0.07995  0.10170  1.0000
  O   O14       1.0  0.75100  0.57996  0.39830  1.0000
  O   O15       1.0  0.25098  0.92005  0.89830  1.0000
  O   O16       1.0  0.24904  0.42006  0.60170  1.0000
  F   F1        1.0  0.76543  0.59912  0.12619  1.0000
  F   F2        1.0  0.73459  0.09912  0.37380  1.0000
  F   F3        1.0  0.23457  0.40089  0.87380  1.0000
  F   F4        1.0  0.26545  0.90089  0.62619  1.0000
  F   F5        1.0  0.42501  0.41133  0.15049  1.0000
  F   F6        1.0  0.07500  0.91132  0.34950  1.0000
  F   F7        1.0  0.57497  0.58867  0.84950  1.0000
  F   F8        1.0  0.92502  0.08868  0.65049  1.0000
