data_image0
_chemical_formula_structural       Ag4H24C20S16N4O12
_chemical_formula_sum              "Ag4 H24 C20 S16 N4 O12"
_cell_length_a       7.68991
_cell_length_b       9.12087
_cell_length_c       14.4192
_cell_angle_alpha    90.001
_cell_angle_beta     91.6561
_cell_angle_gamma    89.9975

_space_group_name_H-M_alt    "P 1"
_space_group_IT_number       1

loop_
  _space_group_symop_operation_xyz
  'x, y, z'

loop_
  _atom_site_type_symbol
  _atom_site_label
  _atom_site_symmetry_multiplicity
  _atom_site_fract_x
  _atom_site_fract_y
  _atom_site_fract_z
  _atom_site_occupancy
  Ag  Ag1       1.0  0.57856  0.50731  0.87281  1.0000
  Ag  Ag2       1.0  0.07858  0.99271  0.87282  1.0000
  Ag  Ag3       1.0  0.42141  0.49270  0.12719  1.0000
  Ag  Ag4       1.0  0.92144  0.00730  0.12719  1.0000
  H   H1        1.0  0.44917  0.70635  0.58932  1.0000
  H   H2        1.0  0.94920  0.79363  0.58933  1.0000
  H   H3        1.0  0.55082  0.29362  0.41067  1.0000
  H   H4        1.0  0.05079  0.20637  0.41067  1.0000
  H   H5        1.0  0.52012  0.76678  0.70440  1.0000
  H   H6        1.0  0.02012  0.73322  0.70441  1.0000
  H   H7        1.0  0.47988  0.23321  0.29559  1.0000
  H   H8        1.0  0.97986  0.26679  0.29559  1.0000
  H   H9        1.0  0.30274  0.70589  0.68360  1.0000
  H   H10       1.0  0.80274  0.79411  0.68359  1.0000
  H   H11       1.0  0.69726  0.29410  0.31640  1.0000
  H   H12       1.0  0.19725  0.20590  0.31641  1.0000
  H   H13       1.0  0.14024  0.40668  0.83084  1.0000
  H   H14       1.0  0.64023  0.09333  0.83081  1.0000
  H   H15       1.0  0.85975  0.59329  0.16919  1.0000
  H   H16       1.0  0.35977  0.90669  0.16915  1.0000
  H   H17       1.0  0.02460  0.40738  0.93631  1.0000
  H   H18       1.0  0.52458  0.09268  0.93627  1.0000
  H   H19       1.0  0.97540  0.59262  0.06372  1.0000
  H   H20       1.0  0.47544  0.90739  0.06369  1.0000
  H   H21       1.0  0.00323  0.56163  0.85859  1.0000
  H   H22       1.0  0.50321  0.93840  0.85857  1.0000
  H   H23       1.0  0.99680  0.43836  0.14143  1.0000
  H   H24       1.0  0.49679  0.06164  0.14141  1.0000
  C   C1        1.0  0.43799  0.69067  0.66418  1.0000
  C   C2        1.0  0.93800  0.80933  0.66418  1.0000
  C   C3        1.0  0.56200  0.30931  0.33581  1.0000
  C   C4        1.0  0.06198  0.19068  0.33582  1.0000
  C   C5        1.0  0.02139  0.44297  0.86383  1.0000
  C   C6        1.0  0.52137  0.05706  0.86380  1.0000
  C   C7        1.0  0.97862  0.55702  0.13619  1.0000
  C   C8        1.0  0.47863  0.94298  0.13617  1.0000
  C   C9        1.0  0.83384  0.41838  0.69877  1.0000
  C   C10       1.0  0.33383  0.08163  0.69876  1.0000
  C   C11       1.0  0.16616  0.58161  0.30124  1.0000
  C   C12       1.0  0.66618  0.91837  0.30123  1.0000
  C   C13       1.0  0.69508  0.47899  0.65164  1.0000
  C   C14       1.0  0.19507  0.02100  0.65163  1.0000
  C   C15       1.0  0.30491  0.52100  0.34837  1.0000
  C   C16       1.0  0.80493  0.97899  0.34837  1.0000
  C   C17       1.0  0.94766  0.48176  0.53542  1.0000
  C   C18       1.0  0.44763  0.01820  0.53540  1.0000
  C   C19       1.0  0.05236  0.51821  0.46460  1.0000
  C   C20       1.0  0.55234  0.98173  0.46458  1.0000
  S   S1        1.0  0.48807  0.50275  0.69575  1.0000
  S   S2        1.0  0.98807  0.99725  0.69574  1.0000
  S   S3        1.0  0.51193  0.49724  0.30425  1.0000
  S   S4        1.0  0.01193  0.00277  0.30425  1.0000
  S   S5        1.0  0.83207  0.35267  0.81256  1.0000
  S   S6        1.0  0.33205  0.14735  0.81253  1.0000
  S   S7        1.0  0.16792  0.64733  0.18746  1.0000
  S   S8        1.0  0.66795  0.85267  0.18744  1.0000
  S   S9        1.0  0.72315  0.51924  0.53382  1.0000
  S   S10       1.0  0.22313  0.98072  0.53381  1.0000
  S   S11       1.0  0.27687  0.48074  0.46620  1.0000
  S   S12       1.0  0.77685  0.01923  0.46619  1.0000
  S   S13       1.0  0.02365  0.39076  0.63616  1.0000
  S   S14       1.0  0.52362  0.10924  0.63612  1.0000
  S   S15       1.0  0.97637  0.60924  0.36387  1.0000
  S   S16       1.0  0.47638  0.89072  0.36384  1.0000
  N   N1        1.0  0.76892  0.80215  0.93433  1.0000
  N   N2        1.0  0.26890  0.69788  0.93435  1.0000
  N   N3        1.0  0.23110  0.19787  0.06567  1.0000
  N   N4        1.0  0.73109  0.30215  0.06566  1.0000
  O   O1        1.0  0.80068  0.75155  0.85488  1.0000
  O   O2        1.0  0.30069  0.74850  0.85492  1.0000
  O   O3        1.0  0.19935  0.24846  0.14511  1.0000
  O   O4        1.0  0.69935  0.25153  0.14511  1.0000
  O   O5        1.0  0.66891  0.73584  0.98771  1.0000
  O   O6        1.0  0.16886  0.76416  0.98774  1.0000
  O   O7        1.0  0.33112  0.26417  0.01227  1.0000
  O   O8        1.0  0.83110  0.23583  0.01228  1.0000
  O   O9        1.0  0.83763  0.92433  0.96038  1.0000
  O   O10       1.0  0.33765  0.57569  0.96040  1.0000
  O   O11       1.0  0.16237  0.07568  0.03961  1.0000
  O   O12       1.0  0.66235  0.42431  0.03962  1.0000
