data_image0
_chemical_formula_structural       Cu2H32C36N8O8
_chemical_formula_sum              "Cu2 H32 C36 N8 O8"
_cell_length_a       8.11299
_cell_length_b       9.07415
_cell_length_c       14.0981
_cell_angle_alpha    73.5335
_cell_angle_beta     73.259
_cell_angle_gamma    63.461

_space_group_name_H-M_alt    "P 1"
_space_group_IT_number       1

loop_
  _space_group_symop_operation_xyz
  'x, y, z'

loop_
  _atom_site_type_symbol
  _atom_site_label
  _atom_site_symmetry_multiplicity
  _atom_site_fract_x
  _atom_site_fract_y
  _atom_site_fract_z
  _atom_site_occupancy
  Cu  Cu1       1.0  1.00000  0.00000  1.00000  1.0000
  Cu  Cu2       1.0  0.00000  0.50000  0.50000  1.0000
  H   H1        1.0  0.00609  0.64598  0.99679  1.0000
  H   H2        1.0  0.64802  0.85402  0.50304  1.0000
  H   H3        1.0  0.99390  0.35402  0.00321  1.0000
  H   H4        1.0  0.35198  0.14597  0.49696  1.0000
  H   H5        1.0  0.77033  0.19439  0.84166  1.0000
  H   H6        1.0  0.80653  0.30563  0.65784  1.0000
  H   H7        1.0  0.22966  0.80561  0.15834  1.0000
  H   H8        1.0  0.19345  0.69438  0.34217  1.0000
  H   H9        1.0  0.49097  0.12927  0.93260  1.0000
  H   H10       1.0  0.55276  0.37111  0.56715  1.0000
  H   H11       1.0  0.50903  0.87073  0.06741  1.0000
  H   H12       1.0  0.44723  0.62890  0.43286  1.0000
  H   H13       1.0  0.11008  0.01841  0.75888  1.0000
  H   H14       1.0  0.88710  0.48236  0.74090  1.0000
  H   H15       1.0  0.88992  0.98159  0.24111  1.0000
  H   H16       1.0  0.11290  0.51764  0.25910  1.0000
  H   H17       1.0  0.08272  0.54322  0.81539  1.0000
  H   H18       1.0  0.44071  0.95712  0.68442  1.0000
  H   H19       1.0  0.91727  0.45678  0.18461  1.0000
  H   H20       1.0  0.55928  0.04287  0.31558  1.0000
  H   H21       1.0  0.17781  0.65596  0.63692  1.0000
  H   H22       1.0  0.47055  0.84464  0.86296  1.0000
  H   H23       1.0  0.82219  0.34404  0.36308  1.0000
  H   H24       1.0  0.52944  0.15536  0.13703  1.0000
  H   H25       1.0  0.12179  0.02999  0.59146  1.0000
  H   H26       1.0  0.74288  0.47058  0.90812  1.0000
  H   H27       1.0  0.87821  0.97001  0.40853  1.0000
  H   H28       1.0  0.25712  0.52943  0.09188  1.0000
  H   H29       1.0  0.18650  0.89045  0.50027  1.0000
  H   H30       1.0  0.57726  0.60985  0.99951  1.0000
  H   H31       1.0  0.81350  0.10955  0.49972  1.0000
  H   H32       1.0  0.42274  0.39016  0.00049  1.0000
  C   C1        1.0  0.03763  0.70782  0.92043  1.0000
  C   C2        1.0  0.66518  0.79238  0.57940  1.0000
  C   C3        1.0  0.96237  0.29218  0.07957  1.0000
  C   C4        1.0  0.33482  0.20761  0.42059  1.0000
  C   C5        1.0  0.66252  0.21758  0.80135  1.0000
  C   C6        1.0  0.68136  0.28285  0.69831  1.0000
  C   C7        1.0  0.33748  0.78242  0.19866  1.0000
  C   C8        1.0  0.31864  0.71715  0.30170  1.0000
  C   C9        1.0  0.50580  0.18214  0.85242  1.0000
  C   C10       1.0  0.54020  0.31833  0.64735  1.0000
  C   C11       1.0  0.49419  0.81786  0.14758  1.0000
  C   C12       1.0  0.45979  0.68168  0.35265  1.0000
  C   C13       1.0  0.36421  0.21545  0.80174  1.0000
  C   C14       1.0  0.38113  0.28516  0.69818  1.0000
  C   C15       1.0  0.63578  0.78455  0.19827  1.0000
  C   C16       1.0  0.61887  0.71484  0.30182  1.0000
  C   C17       1.0  0.19261  0.18486  0.86110  1.0000
  C   C18       1.0  0.23823  0.31582  0.63892  1.0000
  C   C19       1.0  0.80739  0.81514  0.13890  1.0000
  C   C20       1.0  0.76177  0.68418  0.36108  1.0000
  C   C21       1.0  0.09045  0.90477  0.80034  1.0000
  C   C22       1.0  0.79517  0.59588  0.69947  1.0000
  C   C23       1.0  0.90954  0.09523  0.19966  1.0000
  C   C24       1.0  0.20484  0.40411  0.30053  1.0000
  C   C25       1.0  0.07684  0.65564  0.83149  1.0000
  C   C26       1.0  0.56330  0.84467  0.66831  1.0000
  C   C27       1.0  0.92316  0.34436  0.16851  1.0000
  C   C28       1.0  0.43669  0.15533  0.33169  1.0000
  C   C29       1.0  0.14930  0.77762  0.65169  1.0000
  C   C30       1.0  0.57824  0.72298  0.84813  1.0000
  C   C31       1.0  0.85072  0.22237  0.34831  1.0000
  C   C32       1.0  0.42176  0.27703  0.15186  1.0000
  C   C33       1.0  0.15195  0.90718  0.57806  1.0000
  C   C34       1.0  0.63698  0.59333  0.92168  1.0000
  C   C35       1.0  0.84805  0.09282  0.42194  1.0000
  C   C36       1.0  0.36303  0.40668  0.07832  1.0000
  N   N1        1.0  0.04725  0.86260  0.90014  1.0000
  N   N2        1.0  0.80952  0.63781  0.59968  1.0000
  N   N3        1.0  0.95275  0.13740  0.09985  1.0000
  N   N4        1.0  0.19048  0.36218  0.40032  1.0000
  N   N5        1.0  0.10886  0.78164  0.75576  1.0000
  N   N6        1.0  0.64576  0.71894  0.74404  1.0000
  N   N7        1.0  0.89115  0.21836  0.24424  1.0000
  N   N8        1.0  0.35423  0.28105  0.25595  1.0000
  O   O1        1.0  0.03161  0.29157  0.84921  1.0000
  O   O2        1.0  0.17214  0.20903  0.65074  1.0000
  O   O3        1.0  0.96840  0.70843  0.15078  1.0000
  O   O4        1.0  0.82787  0.79097  0.34926  1.0000
  O   O5        1.0  0.22619  0.04567  0.92528  1.0000
  O   O6        1.0  0.19677  0.45508  0.57480  1.0000
  O   O7        1.0  0.77381  0.95433  0.07472  1.0000
  O   O8        1.0  0.80323  0.54491  0.42520  1.0000
