data_image0
_chemical_formula_structural       Ba4P4H36C20N4O30
_chemical_formula_sum              "Ba4 P4 H36 C20 N4 O30"
_cell_length_a       5.10742
_cell_length_b       11.1114
_cell_length_c       18.4727
_cell_angle_alpha    101.655
_cell_angle_beta     90.0033
_cell_angle_gamma    103.281

_space_group_name_H-M_alt    "P 1"
_space_group_IT_number       1

loop_
  _space_group_symop_operation_xyz
  'x, y, z'

loop_
  _atom_site_type_symbol
  _atom_site_label
  _atom_site_symmetry_multiplicity
  _atom_site_fract_x
  _atom_site_fract_y
  _atom_site_fract_z
  _atom_site_occupancy
  Ba  Ba1       1.0  0.19710  0.10144  0.61168  1.0000
  Ba  Ba2       1.0  0.09557  0.89849  0.88826  1.0000
  Ba  Ba3       1.0  0.80290  0.89856  0.38833  1.0000
  Ba  Ba4       1.0  0.90442  0.10149  0.11174  1.0000
  P   P1        1.0  0.49019  0.17218  0.44737  1.0000
  P   P2        1.0  0.31846  0.82807  0.05256  1.0000
  P   P3        1.0  0.50982  0.82783  0.55263  1.0000
  P   P4        1.0  0.68153  0.17193  0.94744  1.0000
  H   H1        1.0  0.82522  0.25740  0.54347  1.0000
  H   H2        1.0  0.56782  0.74266  0.95649  1.0000
  H   H3        1.0  0.17479  0.74261  0.45653  1.0000
  H   H4        1.0  0.43219  0.25733  0.04351  1.0000
  H   H5        1.0  0.35581  0.05451  0.78666  1.0000
  H   H6        1.0  0.30180  0.94577  0.71351  1.0000
  H   H7        1.0  0.64418  0.94549  0.21335  1.0000
  H   H8        1.0  0.69821  0.05424  0.28649  1.0000
  H   H9        1.0  0.73536  0.33064  0.35493  1.0000
  H   H10       1.0  0.40526  0.66955  0.14496  1.0000
  H   H11       1.0  0.26461  0.66936  0.64506  1.0000
  H   H12       1.0  0.59474  0.33045  0.85505  1.0000
  H   H13       1.0  0.24699  0.33853  0.44025  1.0000
  H   H14       1.0  0.90897  0.66208  0.05984  1.0000
  H   H15       1.0  0.75300  0.66147  0.55975  1.0000
  H   H16       1.0  0.09104  0.33792  0.94016  1.0000
  H   H17       1.0  0.58548  0.40057  0.47814  1.0000
  H   H18       1.0  0.18485  0.59966  0.02176  1.0000
  H   H19       1.0  0.41451  0.59944  0.52186  1.0000
  H   H20       1.0  0.81514  0.40032  0.97825  1.0000
  H   H21       1.0  0.43528  0.52889  0.38266  1.0000
  H   H22       1.0  0.90704  0.47137  0.11700  1.0000
  H   H23       1.0  0.56473  0.47111  0.61734  1.0000
  H   H24       1.0  0.09298  0.52863  0.88300  1.0000
  H   H25       1.0  0.62295  0.50033  0.30201  1.0000
  H   H26       1.0  0.12263  0.49964  0.19774  1.0000
  H   H27       1.0  0.37707  0.49966  0.69799  1.0000
  H   H28       1.0  0.87737  0.50034  0.80226  1.0000
  H   H29       1.0  0.21244  0.31921  0.28611  1.0000
  H   H30       1.0  0.89354  0.68118  0.21373  1.0000
  H   H31       1.0  0.78753  0.68080  0.71389  1.0000
  H   H32       1.0  0.10646  0.31881  0.78627  1.0000
  H   H33       1.0  0.26600  0.18398  0.31475  1.0000
  H   H34       1.0  0.08376  0.81646  0.18538  1.0000
  H   H35       1.0  0.73397  0.81603  0.68526  1.0000
  H   H36       1.0  0.91622  0.18354  0.81462  1.0000
  C   C1        1.0  0.45502  0.32889  0.43540  1.0000
  C   C2        1.0  0.12656  0.67144  0.06455  1.0000
  C   C3        1.0  0.54498  0.67112  0.56460  1.0000
  C   C4        1.0  0.87344  0.32855  0.93545  1.0000
  C   C5        1.0  0.60519  0.49110  0.35998  1.0000
  C   C6        1.0  0.11462  0.50907  0.13979  1.0000
  C   C7        1.0  0.39482  0.50891  0.64001  1.0000
  C   C8        1.0  0.88541  0.49092  0.86022  1.0000
  C   C9        1.0  0.87285  0.55796  0.40242  1.0000
  C   C10       1.0  0.31551  0.44224  0.09742  1.0000
  C   C11       1.0  0.12717  0.44205  0.59758  1.0000
  C   C12       1.0  0.68453  0.55777  0.90259  1.0000
  C   C13       1.0  0.36840  0.27198  0.29860  1.0000
  C   C14       1.0  0.09707  0.72817  0.20135  1.0000
  C   C15       1.0  0.63158  0.72803  0.70140  1.0000
  C   C16       1.0  0.90292  0.27183  0.79865  1.0000
  C   C17       1.0  0.53457  0.23872  0.23183  1.0000
  C   C18       1.0  0.29608  0.76087  0.26818  1.0000
  C   C19       1.0  0.46539  0.76126  0.76817  1.0000
  C   C20       1.0  0.70390  0.23913  0.73182  1.0000
  N   N1        1.0  0.54900  0.35362  0.36188  1.0000
  N   N2        1.0  0.19594  0.64658  0.13801  1.0000
  N   N3        1.0  0.45099  0.64639  0.63811  1.0000
  N   N4        1.0  0.80406  0.35341  0.86199  1.0000
  O   O1        1.0  0.21675  0.08720  0.45409  1.0000
  O   O2        1.0  0.13033  0.91320  0.04590  1.0000
  O   O3        1.0  0.78327  0.91280  0.54590  1.0000
  O   O4        1.0  0.86967  0.08679  0.95409  1.0000
  O   O5        1.0  0.66546  0.12769  0.38611  1.0000
  O   O6        1.0  0.53844  0.87232  0.11379  1.0000
  O   O7        1.0  0.33458  0.87232  0.61390  1.0000
  O   O8        1.0  0.46156  0.12767  0.88622  1.0000
  O   O9        1.0  0.63076  0.19916  0.52744  1.0000
  O   O10       1.0  0.43163  0.80095  0.97245  1.0000
  O   O11       1.0  0.36923  0.80086  0.47256  1.0000
  O   O12       1.0  0.56838  0.19904  0.02755  1.0000
  O   O13       1.0  0.91050  0.67833  0.42308  1.0000
  O   O14       1.0  0.23262  0.32184  0.07683  1.0000
  O   O15       1.0  0.08952  0.32169  0.57692  1.0000
  O   O16       1.0  0.76740  0.67816  0.92317  1.0000
  O   O17       1.0  0.03275  0.49240  0.41291  1.0000
  O   O18       1.0  0.54098  0.50774  0.08692  1.0000
  O   O19       1.0  0.96724  0.50761  0.58709  1.0000
  O   O20       1.0  0.45907  0.49226  0.91309  1.0000
  O   O21       1.0  0.40800  0.15678  0.17777  1.0000
  O   O22       1.0  0.25109  0.84254  0.32234  1.0000
  O   O23       1.0  0.59198  0.84322  0.82222  1.0000
  O   O24       1.0  0.74889  0.15746  0.67765  1.0000
  O   O25       1.0  0.78451  0.28969  0.23596  1.0000
  O   O26       1.0  0.49493  0.70982  0.26401  1.0000
  O   O27       1.0  0.21546  0.71030  0.76404  1.0000
  O   O28       1.0  0.50507  0.29019  0.73600  1.0000
  O   O29       1.0  0.21518  0.00021  0.75000  1.0000
  O   O30       1.0  0.78482  0.99979  0.25001  1.0000
