data_image0
_chemical_formula_structural       Sr4P2H16C10N2O16
_chemical_formula_sum              "Sr4 P2 H16 C10 N2 O16"
_cell_length_a       6.86219
_cell_length_b       7.20719
_cell_length_c       11.4708
_cell_angle_alpha    96.1368
_cell_angle_beta     103.873
_cell_angle_gamma    94.9821

_space_group_name_H-M_alt    "P 1"
_space_group_IT_number       1

loop_
  _space_group_symop_operation_xyz
  'x, y, z'

loop_
  _atom_site_type_symbol
  _atom_site_label
  _atom_site_symmetry_multiplicity
  _atom_site_fract_x
  _atom_site_fract_y
  _atom_site_fract_z
  _atom_site_occupancy
  Sr  Sr1       1.0  0.80473  0.66478  0.91990  1.0000
  Sr  Sr2       1.0  0.19527  0.33522  0.08010  1.0000
  Sr  Sr3       1.0  0.46204  0.85120  0.14483  1.0000
  Sr  Sr4       1.0  0.53796  0.14881  0.85517  1.0000
  P   P1        1.0  0.31178  0.63350  0.86991  1.0000
  P   P2        1.0  0.68822  0.36650  0.13009  1.0000
  H   H1        1.0  0.22185  0.64860  0.65318  1.0000
  H   H2        1.0  0.77816  0.35140  0.34683  1.0000
  H   H3        1.0  0.09536  0.45796  0.70206  1.0000
  H   H4        1.0  0.90465  0.54204  0.29795  1.0000
  H   H5        1.0  0.85059  0.94376  0.63592  1.0000
  H   H6        1.0  0.14941  0.05623  0.36408  1.0000
  H   H7        1.0  0.11558  0.93728  0.66067  1.0000
  H   H8        1.0  0.88442  0.06271  0.33933  1.0000
  H   H9        1.0  0.84315  0.57944  0.52202  1.0000
  H   H10       1.0  0.15685  0.42056  0.47798  1.0000
  H   H11       1.0  0.65994  0.67198  0.58937  1.0000
  H   H12       1.0  0.34006  0.32802  0.41064  1.0000
  H   H13       1.0  0.60386  0.09490  0.42456  1.0000
  H   H14       1.0  0.39614  0.90510  0.57545  1.0000
  H   H15       1.0  0.48956  0.88686  0.40492  1.0000
  H   H16       1.0  0.51044  0.11315  0.59508  1.0000
  C   C1        1.0  0.13799  0.61086  0.72016  1.0000
  C   C2        1.0  0.86201  0.38914  0.27984  1.0000
  C   C3        1.0  0.98486  0.90379  0.69765  1.0000
  C   C4        1.0  0.01514  0.09621  0.30235  1.0000
  C   C5        1.0  0.79462  0.59656  0.60736  1.0000
  C   C6        1.0  0.20538  0.40344  0.39264  1.0000
  C   C7        1.0  0.00732  0.02580  0.81907  1.0000
  C   C8        1.0  0.99268  0.97421  0.18093  1.0000
  C   C9        1.0  0.72374  0.40223  0.63490  1.0000
  C   C10       1.0  0.27626  0.59777  0.36510  1.0000
  N   N1        1.0  0.95138  0.70182  0.70839  1.0000
  N   N2        1.0  0.04862  0.29818  0.29161  1.0000
  O   O1        1.0  0.45086  0.82257  0.90478  1.0000
  O   O2        1.0  0.54914  0.17743  0.09522  1.0000
  O   O3        1.0  0.17940  0.61653  0.96127  1.0000
  O   O4        1.0  0.82060  0.38347  0.03873  1.0000
  O   O5        1.0  0.44412  0.47525  0.86113  1.0000
  O   O6        1.0  0.55588  0.52475  0.13887  1.0000
  O   O7        1.0  0.74635  0.37543  0.74469  1.0000
  O   O8        1.0  0.25365  0.62457  0.25531  1.0000
  O   O9        1.0  0.63787  0.28052  0.54394  1.0000
  O   O10       1.0  0.36213  0.71948  0.45606  1.0000
  O   O11       1.0  0.86393  0.99826  0.87095  1.0000
  O   O12       1.0  0.13607  0.00174  0.12905  1.0000
  O   O13       1.0  0.16021  0.14645  0.86162  1.0000
  O   O14       1.0  0.83978  0.85355  0.13838  1.0000
  O   O15       1.0  0.56367  0.97944  0.36627  1.0000
  O   O16       1.0  0.43633  0.02056  0.63373  1.0000
