data_image0
_chemical_formula_structural       CdH24C18N10O6
_chemical_formula_sum              "Cd1 H24 C18 N10 O6"
_cell_length_a       7.7652
_cell_length_b       9.33373
_cell_length_c       9.44211
_cell_angle_alpha    61.8067
_cell_angle_beta     75.4111
_cell_angle_gamma    68.4268

_space_group_name_H-M_alt    "P 1"
_space_group_IT_number       1

loop_
  _space_group_symop_operation_xyz
  'x, y, z'

loop_
  _atom_site_type_symbol
  _atom_site_label
  _atom_site_symmetry_multiplicity
  _atom_site_fract_x
  _atom_site_fract_y
  _atom_site_fract_z
  _atom_site_occupancy
  Cd  Cd1       1.0  0.50000  0.00000  1.00000  1.0000
  H   H1        1.0  0.16124  0.07422  0.78740  1.0000
  H   H2        1.0  0.83875  0.92578  0.21260  1.0000
  H   H3        1.0  0.17587  0.20024  0.45456  1.0000
  H   H4        1.0  0.82412  0.79976  0.54544  1.0000
  H   H5        1.0  0.68895  0.36240  0.51137  1.0000
  H   H6        1.0  0.31105  0.63760  0.48862  1.0000
  H   H7        1.0  0.81419  0.16700  0.49773  1.0000
  H   H8        1.0  0.18580  0.83299  0.50226  1.0000
  H   H9        1.0  0.75488  0.17680  0.68911  1.0000
  H   H10       1.0  0.24512  0.82320  0.31089  1.0000
  H   H11       1.0  0.65399  0.24714  0.28380  1.0000
  H   H12       1.0  0.34600  0.75285  0.71621  1.0000
  H   H13       1.0  0.45065  0.23315  0.24281  1.0000
  H   H14       1.0  0.54935  0.76686  0.75719  1.0000
  H   H15       1.0  0.15514  0.50032  0.18882  1.0000
  H   H16       1.0  0.84486  0.49969  0.81119  1.0000
  H   H17       1.0  0.14367  0.83995  0.02110  1.0000
  H   H18       1.0  0.85633  0.16005  0.97891  1.0000
  H   H19       1.0  0.81073  0.60537  0.06095  1.0000
  H   H20       1.0  0.18927  0.39462  0.93905  1.0000
  H   H21       1.0  0.80552  0.40408  0.22171  1.0000
  H   H22       1.0  0.19448  0.59592  0.77829  1.0000
  H   H23       1.0  0.75054  0.58541  0.26164  1.0000
  H   H24       1.0  0.24947  0.41459  0.73835  1.0000
  C   C1        1.0  0.26686  0.12186  0.69537  1.0000
  C   C2        1.0  0.73313  0.87813  0.30464  1.0000
  C   C3        1.0  0.26974  0.18534  0.53156  1.0000
  C   C4        1.0  0.73025  0.81466  0.46844  1.0000
  C   C5        1.0  0.52746  0.18992  0.59290  1.0000
  C   C6        1.0  0.47253  0.81008  0.40710  1.0000
  C   C7        1.0  0.70616  0.22494  0.57146  1.0000
  C   C8        1.0  0.29383  0.77505  0.42854  1.0000
  C   C9        1.0  0.50199  0.28921  0.29673  1.0000
  C   C10       1.0  0.49801  0.71079  0.70327  1.0000
  C   C11       1.0  0.25955  0.56360  0.16109  1.0000
  C   C12       1.0  0.74045  0.43640  0.83891  1.0000
  C   C13       1.0  0.25782  0.73019  0.07723  1.0000
  C   C14       1.0  0.74219  0.26981  0.92277  1.0000
  C   C15       1.0  0.53915  0.58631  0.15308  1.0000
  C   C16       1.0  0.46086  0.41369  0.84692  1.0000
  C   C17       1.0  0.73726  0.54101  0.17691  1.0000
  C   C18       1.0  0.26274  0.45899  0.82308  1.0000
  N   N1        1.0  0.90658  0.85488  0.81761  1.0000
  N   N2        1.0  0.09342  0.14512  0.18239  1.0000
  N   N3        1.0  0.42736  0.12393  0.73245  1.0000
  N   N4        1.0  0.57264  0.87607  0.26755  1.0000
  N   N5        1.0  0.43511  0.22776  0.46762  1.0000
  N   N6        1.0  0.56489  0.77223  0.53239  1.0000
  N   N7        1.0  0.43771  0.47331  0.20911  1.0000
  N   N8        1.0  0.56229  0.52669  0.79090  1.0000
  N   N9        1.0  0.43159  0.74322  0.07227  1.0000
  N   N10       1.0  0.56841  0.25678  0.92772  1.0000
  O   O1        1.0  0.83993  0.91109  0.92695  1.0000
  O   O2        1.0  0.16007  0.08892  0.07305  1.0000
  O   O3        1.0  0.82278  0.77484  0.79582  1.0000
  O   O4        1.0  0.17722  0.22517  0.20418  1.0000
  O   O5        1.0  0.05538  0.88077  0.73426  1.0000
  O   O6        1.0  0.94463  0.11923  0.26575  1.0000
