data_image0
_chemical_formula_structural       Zn2H32C28N8O8
_chemical_formula_sum              "Zn2 H32 C28 N8 O8"
_cell_length_a       8.12265
_cell_length_b       9.90824
_cell_length_c       10.5209
_cell_angle_alpha    97.0014
_cell_angle_beta     109.724
_cell_angle_gamma    99.6078

_space_group_name_H-M_alt    "P 1"
_space_group_IT_number       1

loop_
  _space_group_symop_operation_xyz
  'x, y, z'

loop_
  _atom_site_type_symbol
  _atom_site_label
  _atom_site_symmetry_multiplicity
  _atom_site_fract_x
  _atom_site_fract_y
  _atom_site_fract_z
  _atom_site_occupancy
  Zn  Zn1       1.0  0.96756  0.33307  0.22213  1.0000
  Zn  Zn2       1.0  0.03244  0.66693  0.77787  1.0000
  H   H1        1.0  0.50707  0.62072  0.10986  1.0000
  H   H2        1.0  0.49292  0.37928  0.89013  1.0000
  H   H3        1.0  0.88049  0.08836  0.54001  1.0000
  H   H4        1.0  0.11952  0.91164  0.45999  1.0000
  H   H5        1.0  0.87628  0.33835  0.90841  1.0000
  H   H6        1.0  0.12372  0.66165  0.09159  1.0000
  H   H7        1.0  0.07011  0.22678  0.76402  1.0000
  H   H8        1.0  0.92989  0.77322  0.23598  1.0000
  H   H9        1.0  0.20207  0.10749  0.15380  1.0000
  H   H10       1.0  0.79792  0.89251  0.84620  1.0000
  H   H11       1.0  0.20291  0.96041  0.84729  1.0000
  H   H12       1.0  0.79710  0.03959  0.15271  1.0000
  H   H13       1.0  0.33647  0.11769  0.83918  1.0000
  H   H14       1.0  0.66353  0.88231  0.16083  1.0000
  H   H15       1.0  0.39208  0.98197  0.09387  1.0000
  H   H16       1.0  0.60792  0.01803  0.90614  1.0000
  H   H17       1.0  0.52551  0.14265  0.08982  1.0000
  H   H18       1.0  0.47449  0.85735  0.91018  1.0000
  H   H19       1.0  0.36768  0.40734  0.22888  1.0000
  H   H20       1.0  0.63232  0.59267  0.77112  1.0000
  H   H21       1.0  0.60871  0.64737  0.39201  1.0000
  H   H22       1.0  0.39128  0.35264  0.60798  1.0000
  H   H23       1.0  0.11154  0.62514  0.44879  1.0000
  H   H24       1.0  0.88846  0.37486  0.55121  1.0000
  H   H25       1.0  0.58230  0.81375  0.61173  1.0000
  H   H26       1.0  0.41770  0.18625  0.38827  1.0000
  H   H27       1.0  0.35755  0.82578  0.59137  1.0000
  H   H28       1.0  0.64245  0.17422  0.40863  1.0000
  H   H29       1.0  0.56082  0.90956  0.40269  1.0000
  H   H30       1.0  0.43918  0.09044  0.59731  1.0000
  H   H31       1.0  0.33580  0.92180  0.37306  1.0000
  H   H32       1.0  0.66420  0.07820  0.62694  1.0000
  C   C1        1.0  0.70236  0.48645  0.15887  1.0000
  C   C2        1.0  0.29764  0.51355  0.84113  1.0000
  C   C3        1.0  0.54597  0.53149  0.06580  1.0000
  C   C4        1.0  0.45402  0.46851  0.93420  1.0000
  C   C5        1.0  0.00891  0.14253  0.39163  1.0000
  C   C6        1.0  0.99110  0.85747  0.60837  1.0000
  C   C7        1.0  0.96879  0.05761  0.48904  1.0000
  C   C8        1.0  0.03121  0.94239  0.51097  1.0000
  C   C9        1.0  0.97103  0.27189  0.93620  1.0000
  C   C10       1.0  0.02897  0.72810  0.06380  1.0000
  C   C11       1.0  0.06396  0.21613  0.86360  1.0000
  C   C12       1.0  0.93604  0.78386  0.13640  1.0000
  C   C13       1.0  0.14015  0.15488  0.06754  1.0000
  C   C14       1.0  0.85985  0.84512  0.93247  1.0000
  C   C15       1.0  0.28637  0.06204  0.90765  1.0000
  C   C16       1.0  0.71363  0.93796  0.09235  1.0000
  C   C17       1.0  0.44282  0.04097  0.02738  1.0000
  C   C18       1.0  0.55718  0.95903  0.97263  1.0000
  C   C19       1.0  0.34967  0.48863  0.29832  1.0000
  C   C20       1.0  0.65033  0.51138  0.70168  1.0000
  C   C21       1.0  0.46984  0.60813  0.37850  1.0000
  C   C22       1.0  0.53016  0.39187  0.62149  1.0000
  C   C23       1.0  0.21109  0.59756  0.40911  1.0000
  C   C24       1.0  0.78891  0.40244  0.59089  1.0000
  C   C25       1.0  0.44965  0.81291  0.53698  1.0000
  C   C26       1.0  0.55035  0.18709  0.46302  1.0000
  C   C27       1.0  0.46653  0.92774  0.45420  1.0000
  C   C28       1.0  0.53347  0.07226  0.54579  1.0000
  N   N1        1.0  0.01981  0.23296  0.06339  1.0000
  N   N2        1.0  0.98020  0.76703  0.93661  1.0000
  N   N3        1.0  0.17069  0.14316  0.94809  1.0000
  N   N4        1.0  0.82931  0.85684  0.05191  1.0000
  N   N5        1.0  0.18888  0.48329  0.31793  1.0000
  N   N6        1.0  0.81111  0.51671  0.68207  1.0000
  N   N7        1.0  0.37975  0.67540  0.44753  1.0000
  N   N8        1.0  0.62024  0.32460  0.55247  1.0000
  O   O1        1.0  0.74418  0.37774  0.10570  1.0000
  O   O2        1.0  0.25580  0.62225  0.89430  1.0000
  O   O3        1.0  0.78439  0.55396  0.27947  1.0000
  O   O4        1.0  0.21561  0.44604  0.72052  1.0000
  O   O5        1.0  0.90438  0.22846  0.35512  1.0000
  O   O6        1.0  0.09563  0.77154  0.64488  1.0000
  O   O7        1.0  0.12990  0.12603  0.34655  1.0000
  O   O8        1.0  0.87011  0.87396  0.65346  1.0000
