data_image0
_chemical_formula_structural       Ag4H12C8S4N12Cl4
_chemical_formula_sum              "Ag4 H12 C8 S4 N12 Cl4"
_cell_length_a       4.3961
_cell_length_b       6.36699
_cell_length_c       21.6062
_cell_angle_alpha    89.9997
_cell_angle_beta     89.9996
_cell_angle_gamma    98.0974

_space_group_name_H-M_alt    "P 1"
_space_group_IT_number       1

loop_
  _space_group_symop_operation_xyz
  'x, y, z'

loop_
  _atom_site_type_symbol
  _atom_site_label
  _atom_site_symmetry_multiplicity
  _atom_site_fract_x
  _atom_site_fract_y
  _atom_site_fract_z
  _atom_site_occupancy
  Ag  Ag1       1.0  0.08956  0.01117  0.95422  1.0000
  Ag  Ag2       1.0  0.91050  0.98883  0.45421  1.0000
  Ag  Ag3       1.0  0.42677  0.44284  0.91899  1.0000
  Ag  Ag4       1.0  0.57325  0.55716  0.41898  1.0000
  H   H1        1.0  0.00295  0.81920  0.81348  1.0000
  H   H2        1.0  0.99705  0.18079  0.31348  1.0000
  H   H3        1.0  0.60777  0.81240  0.06240  1.0000
  H   H4        1.0  0.39222  0.18760  0.56239  1.0000
  H   H5        1.0  0.47558  0.29657  0.77903  1.0000
  H   H6        1.0  0.52442  0.70343  0.27902  1.0000
  H   H7        1.0  0.15917  0.33805  0.07454  1.0000
  H   H8        1.0  0.84084  0.66194  0.57454  1.0000
  H   H9        1.0  0.04153  0.91503  0.69824  1.0000
  H   H10       1.0  0.95843  0.08496  0.19823  1.0000
  H   H11       1.0  0.97423  0.43095  0.18555  1.0000
  H   H12       1.0  0.02577  0.56905  0.68554  1.0000
  C   C1        1.0  0.90261  0.57807  0.04302  1.0000
  C   C2        1.0  0.09739  0.42194  0.54301  1.0000
  C   C3        1.0  0.70791  0.06257  0.82147  1.0000
  C   C4        1.0  0.29210  0.93743  0.32146  1.0000
  C   C5        1.0  0.90055  0.98313  0.73174  1.0000
  C   C6        1.0  0.09941  0.01687  0.23173  1.0000
  C   C7        1.0  0.91244  0.49897  0.14218  1.0000
  C   C8        1.0  0.08755  0.50103  0.64217  1.0000
  S   S1        1.0  0.96095  0.59025  0.96471  1.0000
  S   S2        1.0  0.03906  0.40975  0.46470  1.0000
  S   S3        1.0  0.62593  0.07816  0.89835  1.0000
  S   S4        1.0  0.37412  0.92185  0.39834  1.0000
  N   N1        1.0  0.89682  0.93858  0.79370  1.0000
  N   N2        1.0  0.10318  0.06142  0.29369  1.0000
  N   N3        1.0  0.72399  0.69022  0.07690  1.0000
  N   N4        1.0  0.27601  0.30977  0.57690  1.0000
  N   N5        1.0  0.60550  0.17298  0.77450  1.0000
  N   N6        1.0  0.39450  0.82702  0.27449  1.0000
  N   N7        1.0  0.02387  0.45502  0.08529  1.0000
  N   N8        1.0  0.97611  0.54499  0.58528  1.0000
  N   N9        1.0  0.72733  0.64296  0.13837  1.0000
  N   N10       1.0  0.27269  0.35701  0.63836  1.0000
  N   N11       1.0  0.72390  0.12674  0.71866  1.0000
  N   N12       1.0  0.27606  0.87326  0.21865  1.0000
  Cl  Cl1       1.0  0.24989  0.55105  0.80936  1.0000
  Cl  Cl2       1.0  0.75011  0.44895  0.30935  1.0000
  Cl  Cl3       1.0  0.39043  0.08968  0.05323  1.0000
  Cl  Cl4       1.0  0.60956  0.91032  0.55322  1.0000
