data_image0
_chemical_formula_structural       K4Cu2H20C28N4O20
_chemical_formula_sum              "K4 Cu2 H20 C28 N4 O20"
_cell_length_a       7.33672
_cell_length_b       7.84052
_cell_length_c       15.4949
_cell_angle_alpha    99.0927
_cell_angle_beta     90
_cell_angle_gamma    90.0001

_space_group_name_H-M_alt    "P 1"
_space_group_IT_number       1

loop_
  _space_group_symop_operation_xyz
  'x, y, z'

loop_
  _atom_site_type_symbol
  _atom_site_label
  _atom_site_symmetry_multiplicity
  _atom_site_fract_x
  _atom_site_fract_y
  _atom_site_fract_z
  _atom_site_occupancy
  K   K1        1.0  0.94687  0.46240  0.25821  1.0000
  K   K2        1.0  0.44687  0.53762  0.24179  1.0000
  K   K3        1.0  0.05312  0.53762  0.74180  1.0000
  K   K4        1.0  0.55313  0.46239  0.75821  1.0000
  Cu  Cu1       1.0  1.00000  0.00000  1.00000  1.0000
  Cu  Cu2       1.0  0.50000  0.00000  0.50000  1.0000
  H   H1        1.0  0.77742  0.91384  0.82651  1.0000
  H   H2        1.0  0.27742  0.08615  0.67349  1.0000
  H   H3        1.0  0.22258  0.08616  0.17349  1.0000
  H   H4        1.0  0.72258  0.91384  0.32651  1.0000
  H   H5        1.0  0.47931  0.02073  0.77978  1.0000
  H   H6        1.0  0.97931  0.97926  0.72022  1.0000
  H   H7        1.0  0.52069  0.97927  0.22022  1.0000
  H   H8        1.0  0.02069  0.02074  0.27978  1.0000
  H   H9        1.0  0.42812  0.32437  0.03725  1.0000
  H   H10       1.0  0.92813  0.67563  0.46275  1.0000
  H   H11       1.0  0.57187  0.67563  0.96275  1.0000
  H   H12       1.0  0.07188  0.32437  0.53725  1.0000
  H   H13       1.0  0.56452  0.40376  0.40593  1.0000
  H   H14       1.0  0.06452  0.59624  0.09407  1.0000
  H   H15       1.0  0.43548  0.59624  0.59407  1.0000
  H   H16       1.0  0.93548  0.40376  0.90593  1.0000
  H   H17       1.0  0.65010  0.57936  0.44547  1.0000
  H   H18       1.0  0.15010  0.42064  0.05452  1.0000
  H   H19       1.0  0.34991  0.42064  0.55453  1.0000
  H   H20       1.0  0.84990  0.57936  0.94548  1.0000
  C   C1        1.0  0.75543  0.21864  0.09693  1.0000
  C   C2        1.0  0.25544  0.78136  0.40307  1.0000
  C   C3        1.0  0.24456  0.78136  0.90307  1.0000
  C   C4        1.0  0.74457  0.21864  0.59693  1.0000
  C   C5        1.0  0.66978  0.17296  0.00835  1.0000
  C   C6        1.0  0.16978  0.82704  0.49165  1.0000
  C   C7        1.0  0.33022  0.82703  0.99165  1.0000
  C   C8        1.0  0.83022  0.17296  0.50835  1.0000
  C   C9        1.0  0.69780  0.00743  0.87061  1.0000
  C   C10       1.0  0.19780  0.99258  0.62939  1.0000
  C   C11       1.0  0.30219  0.99258  0.12939  1.0000
  C   C12       1.0  0.80220  0.00742  0.37061  1.0000
  C   C13       1.0  0.42774  0.18209  0.90490  1.0000
  C   C14       1.0  0.92775  0.81791  0.59510  1.0000
  C   C15       1.0  0.57225  0.81791  0.09510  1.0000
  C   C16       1.0  0.07226  0.18209  0.40490  1.0000
  C   C17       1.0  0.24575  0.25188  0.87954  1.0000
  C   C18       1.0  0.74576  0.74812  0.62046  1.0000
  C   C19       1.0  0.75424  0.74812  0.12046  1.0000
  C   C20       1.0  0.25425  0.25188  0.37954  1.0000
  C   C21       1.0  0.52977  0.06668  0.84543  1.0000
  C   C22       1.0  0.02978  0.93332  0.65457  1.0000
  C   C23       1.0  0.47022  0.93332  0.15457  1.0000
  C   C24       1.0  0.97023  0.06668  0.34543  1.0000
  C   C25       1.0  0.50085  0.23536  0.98811  1.0000
  C   C26       1.0  0.00085  0.76464  0.51189  1.0000
  C   C27       1.0  0.49915  0.76463  0.01189  1.0000
  C   C28       1.0  0.99915  0.23536  0.48811  1.0000
  N   N1        1.0  0.76606  0.06102  0.95065  1.0000
  N   N2        1.0  0.26606  0.93898  0.54935  1.0000
  N   N3        1.0  0.23394  0.93898  0.04935  1.0000
  N   N4        1.0  0.73394  0.06102  0.45065  1.0000
  O   O1        1.0  0.91138  0.14745  0.10729  1.0000
  O   O2        1.0  0.41138  0.85255  0.39271  1.0000
  O   O3        1.0  0.08861  0.85255  0.89271  1.0000
  O   O4        1.0  0.58862  0.14745  0.60729  1.0000
  O   O5        1.0  0.67441  0.31802  0.15537  1.0000
  O   O6        1.0  0.17442  0.68197  0.34463  1.0000
  O   O7        1.0  0.32559  0.68197  0.84464  1.0000
  O   O8        1.0  0.82560  0.31802  0.65537  1.0000
  O   O9        1.0  0.65700  0.48960  0.39329  1.0000
  O   O10       1.0  0.15701  0.51041  0.10670  1.0000
  O   O11       1.0  0.34300  0.51040  0.60671  1.0000
  O   O12       1.0  0.84300  0.48960  0.89330  1.0000
  O   O13       1.0  0.22991  0.27453  0.80104  1.0000
  O   O14       1.0  0.72992  0.72546  0.69896  1.0000
  O   O15       1.0  0.77009  0.72547  0.19896  1.0000
  O   O16       1.0  0.27009  0.27454  0.30104  1.0000
  O   O17       1.0  0.12610  0.28474  0.93975  1.0000
  O   O18       1.0  0.62610  0.71525  0.56024  1.0000
  O   O19       1.0  0.87390  0.71526  0.06025  1.0000
  O   O20       1.0  0.37391  0.28474  0.43975  1.0000
