data_image0
_chemical_formula_structural       Mn2Cu2H12C28N4O16
_chemical_formula_sum              "Mn2 Cu2 H12 C28 N4 O16"
_cell_length_a       4.78975
_cell_length_b       9.47044
_cell_length_c       14.9285
_cell_angle_alpha    89.9204
_cell_angle_beta     89.8986
_cell_angle_gamma    103.098

_space_group_name_H-M_alt    "P 1"
_space_group_IT_number       1

loop_
  _space_group_symop_operation_xyz
  'x, y, z'

loop_
  _atom_site_type_symbol
  _atom_site_label
  _atom_site_symmetry_multiplicity
  _atom_site_fract_x
  _atom_site_fract_y
  _atom_site_fract_z
  _atom_site_occupancy
  Mn  Mn1       1.0  0.00000  0.50000  0.50000  1.0000
  Mn  Mn2       1.0  1.00000  1.00000  1.00000  1.0000
  Cu  Cu1       1.0  0.50000  0.00000  0.50000  1.0000
  Cu  Cu2       1.0  0.50000  0.50000  0.00000  1.0000
  H   H1        1.0  0.97164  0.69336  0.68288  1.0000
  H   H2        1.0  0.02697  0.80625  0.18366  1.0000
  H   H3        1.0  0.02836  0.30664  0.31712  1.0000
  H   H4        1.0  0.97303  0.19375  0.81634  1.0000
  H   H5        1.0  0.80909  0.76621  0.83518  1.0000
  H   H6        1.0  0.19215  0.73383  0.33560  1.0000
  H   H7        1.0  0.19091  0.23379  0.16482  1.0000
  H   H8        1.0  0.80786  0.26616  0.66440  1.0000
  H   H9        1.0  0.32858  0.03265  0.69635  1.0000
  H   H10       1.0  0.66964  0.46670  0.19606  1.0000
  H   H11       1.0  0.67143  0.96736  0.30365  1.0000
  H   H12       1.0  0.33037  0.53330  0.80394  1.0000
  C   C1        1.0  0.74432  0.83084  0.61325  1.0000
  C   C2        1.0  0.25408  0.66905  0.11351  1.0000
  C   C3        1.0  0.25568  0.16916  0.38675  1.0000
  C   C4        1.0  0.74593  0.33095  0.88649  1.0000
  C   C5        1.0  0.83050  0.76835  0.68979  1.0000
  C   C6        1.0  0.16824  0.73125  0.19019  1.0000
  C   C7        1.0  0.16950  0.23165  0.31021  1.0000
  C   C8        1.0  0.83177  0.26875  0.80981  1.0000
  C   C9        1.0  0.73871  0.80715  0.77292  1.0000
  C   C10       1.0  0.26107  0.69252  0.27324  1.0000
  C   C11       1.0  0.26128  0.19286  0.22708  1.0000
  C   C12       1.0  0.73893  0.30748  0.72676  1.0000
  C   C13       1.0  0.55496  0.90294  0.77706  1.0000
  C   C14       1.0  0.44442  0.59649  0.27713  1.0000
  C   C15       1.0  0.44504  0.09706  0.22294  1.0000
  C   C16       1.0  0.55559  0.40351  0.72287  1.0000
  C   C17       1.0  0.47094  0.95779  0.69707  1.0000
  C   C18       1.0  0.52742  0.54161  0.19701  1.0000
  C   C19       1.0  0.52906  0.04221  0.30293  1.0000
  C   C20       1.0  0.47259  0.45838  0.80299  1.0000
  C   C21       1.0  0.84689  0.80695  0.52068  1.0000
  C   C22       1.0  0.15244  0.69348  0.02098  1.0000
  C   C23       1.0  0.15311  0.19305  0.47932  1.0000
  C   C24       1.0  0.84756  0.30652  0.97902  1.0000
  C   C25       1.0  0.46478  0.95055  0.86661  1.0000
  C   C26       1.0  0.53540  0.54933  0.36667  1.0000
  C   C27       1.0  0.53522  0.04945  0.13339  1.0000
  C   C28       1.0  0.46460  0.45067  0.63333  1.0000
  N   N1        1.0  0.56905  0.92412  0.61771  1.0000
  N   N2        1.0  0.42948  0.57568  0.11773  1.0000
  N   N3        1.0  0.43095  0.07588  0.38229  1.0000
  N   N4        1.0  0.57052  0.42432  0.88227  1.0000
  O   O1        1.0  0.75874  0.87609  0.45665  1.0000
  O   O2        1.0  0.23764  0.62306  0.95719  1.0000
  O   O3        1.0  0.24126  0.12391  0.54335  1.0000
  O   O4        1.0  0.76236  0.37693  0.04281  1.0000
  O   O5        1.0  0.02229  0.72694  0.51064  1.0000
  O   O6        1.0  0.98008  0.77518  0.01058  1.0000
  O   O7        1.0  0.97770  0.27306  0.48936  1.0000
  O   O8        1.0  0.01992  0.22482  0.98942  1.0000
  O   O9        1.0  0.23699  0.99780  0.87138  1.0000
  O   O10       1.0  0.76260  0.50149  0.37136  1.0000
  O   O11       1.0  0.76300  0.00220  0.12862  1.0000
  O   O12       1.0  0.23741  0.49851  0.62864  1.0000
  O   O13       1.0  0.62645  0.93719  0.93154  1.0000
  O   O14       1.0  0.37494  0.56372  0.43190  1.0000
  O   O15       1.0  0.37355  0.06281  0.06845  1.0000
  O   O16       1.0  0.62506  0.43627  0.56810  1.0000
