data_image0
_chemical_formula_structural       MnCuH6C14N2O8
_chemical_formula_sum              "Mn1 Cu1 H6 C14 N2 O8"
_cell_length_a       5.04296
_cell_length_b       7.4014
_cell_length_c       9.26227
_cell_angle_alpha    99.8701
_cell_angle_beta     96.924
_cell_angle_gamma    99.2137

_space_group_name_H-M_alt    "P 1"
_space_group_IT_number       1

loop_
  _space_group_symop_operation_xyz
  'x, y, z'

loop_
  _atom_site_type_symbol
  _atom_site_label
  _atom_site_symmetry_multiplicity
  _atom_site_fract_x
  _atom_site_fract_y
  _atom_site_fract_z
  _atom_site_occupancy
  Mn  Mn1       1.0  0.00000  0.50000  0.50000  1.0000
  Cu  Cu1       1.0  0.50000  0.50000  1.00000  1.0000
  H   H1        1.0  0.91871  0.12099  0.63425  1.0000
  H   H2        1.0  0.08129  0.87901  0.36575  1.0000
  H   H3        1.0  0.23305  0.80394  0.77548  1.0000
  H   H4        1.0  0.76695  0.19606  0.22452  1.0000
  H   H5        1.0  0.19924  0.09834  0.95044  1.0000
  H   H6        1.0  0.80076  0.90166  0.04956  1.0000
  C   C1        1.0  0.71512  0.26707  0.79621  1.0000
  C   C2        1.0  0.28488  0.73293  0.20379  1.0000
  C   C3        1.0  0.75745  0.10963  0.70243  1.0000
  C   C4        1.0  0.24256  0.89037  0.29757  1.0000
  C   C5        1.0  0.58099  0.94008  0.69281  1.0000
  C   C6        1.0  0.41901  0.05992  0.30719  1.0000
  C   C7        1.0  0.37465  0.93341  0.78131  1.0000
  C   C8        1.0  0.62535  0.06659  0.21870  1.0000
  C   C9        1.0  0.35234  0.09521  0.87695  1.0000
  C   C10       1.0  0.64765  0.90479  0.12305  1.0000
  C   C11       1.0  0.87424  0.45948  0.80798  1.0000
  C   C12       1.0  0.12576  0.54052  0.19203  1.0000
  C   C13       1.0  0.60426  0.76917  0.58365  1.0000
  C   C14       1.0  0.39574  0.23083  0.41635  1.0000
  N   N1        1.0  0.51724  0.25830  0.88240  1.0000
  N   N2        1.0  0.48276  0.74170  0.11759  1.0000
  O   O1        1.0  0.80821  0.59110  0.89840  1.0000
  O   O2        1.0  0.19179  0.40890  0.10160  1.0000
  O   O3        1.0  0.06287  0.48593  0.73125  1.0000
  O   O4        1.0  0.93713  0.51408  0.26875  1.0000
  O   O5        1.0  0.84257  0.74971  0.56058  1.0000
  O   O6        1.0  0.15744  0.25030  0.43942  1.0000
  O   O7        1.0  0.38573  0.66239  0.51969  1.0000
  O   O8        1.0  0.61428  0.33761  0.48031  1.0000
