data_image0
_chemical_formula_structural       CoCuH14C14N2O12
_chemical_formula_sum              "Co1 Cu1 H14 C14 N2 O12"
_cell_length_a       7.70698
_cell_length_b       7.75994
_cell_length_c       7.68847
_cell_angle_alpha    114.082
_cell_angle_beta     96.1288
_cell_angle_gamma    92.6338

_space_group_name_H-M_alt    "P 1"
_space_group_IT_number       1

loop_
  _space_group_symop_operation_xyz
  'x, y, z'

loop_
  _atom_site_type_symbol
  _atom_site_label
  _atom_site_symmetry_multiplicity
  _atom_site_fract_x
  _atom_site_fract_y
  _atom_site_fract_z
  _atom_site_occupancy
  Co  Co1       1.0  0.50000  0.50000  1.00000  1.0000
  Cu  Cu1       1.0  1.00000  0.50000  0.50000  1.0000
  H   H1        1.0  0.00555  0.83945  0.08606  1.0000
  H   H2        1.0  0.99445  0.16055  0.91395  1.0000
  H   H3        1.0  0.39825  0.46148  0.30452  1.0000
  H   H4        1.0  0.60175  0.53852  0.69547  1.0000
  H   H5        1.0  0.57188  0.60339  0.38987  1.0000
  H   H6        1.0  0.42812  0.39661  0.61013  1.0000
  H   H7        1.0  0.37976  0.10318  0.60715  1.0000
  H   H8        1.0  0.62025  0.89681  0.39285  1.0000
  H   H9        1.0  0.59121  0.83100  0.00154  1.0000
  H   H10       1.0  0.40879  0.16900  0.99846  1.0000
  H   H11       1.0  0.28208  0.84159  0.69550  1.0000
  H   H12       1.0  0.71792  0.15840  0.30449  1.0000
  H   H13       1.0  0.39071  0.83862  0.03778  1.0000
  H   H14       1.0  0.60930  0.16138  0.96222  1.0000
  C   C1        1.0  0.02102  0.71078  0.28619  1.0000
  C   C2        1.0  0.97897  0.28921  0.71381  1.0000
  C   C3        1.0  0.07070  0.84607  0.22178  1.0000
  C   C4        1.0  0.92929  0.15393  0.77821  1.0000
  C   C5        1.0  0.20291  0.98995  0.33580  1.0000
  C   C6        1.0  0.79709  0.01005  0.66421  1.0000
  C   C7        1.0  0.27903  0.99261  0.51057  1.0000
  C   C8        1.0  0.72097  0.00739  0.48943  1.0000
  C   C9        1.0  0.22597  0.84799  0.56233  1.0000
  C   C10       1.0  0.77403  0.15201  0.43766  1.0000
  C   C11       1.0  0.87367  0.55726  0.18396  1.0000
  C   C12       1.0  0.12633  0.44275  0.81604  1.0000
  C   C13       1.0  0.26393  0.13207  0.26219  1.0000
  C   C14       1.0  0.73607  0.86793  0.73781  1.0000
  N   N1        1.0  0.09934  0.71093  0.45194  1.0000
  N   N2        1.0  0.90066  0.28906  0.54805  1.0000
  O   O1        1.0  0.85686  0.42825  0.24689  1.0000
  O   O2        1.0  0.14314  0.57175  0.75310  1.0000
  O   O3        1.0  0.77307  0.56590  0.04813  1.0000
  O   O4        1.0  0.22693  0.43410  0.95187  1.0000
  O   O5        1.0  0.27652  0.06334  0.08360  1.0000
  O   O6        1.0  0.72348  0.93666  0.91640  1.0000
  O   O7        1.0  0.29858  0.30535  0.37986  1.0000
  O   O8        1.0  0.70142  0.69466  0.62014  1.0000
  O   O9        1.0  0.47227  0.55932  0.28422  1.0000
  O   O10       1.0  0.52773  0.44068  0.71578  1.0000
  O   O11       1.0  0.49897  0.78292  0.05920  1.0000
  O   O12       1.0  0.50103  0.21708  0.94080  1.0000
