data_image0
_chemical_formula_structural       Zn4P4H24C8N4O12
_chemical_formula_sum              "Zn4 P4 H24 C8 N4 O12"
_cell_length_a       7.54253
_cell_length_b       8.12828
_cell_length_c       9.4192
_cell_angle_alpha    90.0001
_cell_angle_beta     89.9999
_cell_angle_gamma    107.709

_space_group_name_H-M_alt    "P 1"
_space_group_IT_number       1

loop_
  _space_group_symop_operation_xyz
  'x, y, z'

loop_
  _atom_site_type_symbol
  _atom_site_label
  _atom_site_symmetry_multiplicity
  _atom_site_fract_x
  _atom_site_fract_y
  _atom_site_fract_z
  _atom_site_occupancy
  Zn  Zn1       1.0  0.35957  0.79335  0.66723  1.0000
  Zn  Zn2       1.0  0.64042  0.70665  0.16723  1.0000
  Zn  Zn3       1.0  0.64042  0.20665  0.33277  1.0000
  Zn  Zn4       1.0  0.35957  0.29335  0.83276  1.0000
  P   P1        1.0  0.27647  0.64317  0.97342  1.0000
  P   P2        1.0  0.72353  0.85684  0.47340  1.0000
  P   P3        1.0  0.72353  0.35683  0.02660  1.0000
  P   P4        1.0  0.27647  0.14317  0.52658  1.0000
  H   H1        1.0  0.94564  0.66086  0.64337  1.0000
  H   H2        1.0  0.05437  0.83914  0.14337  1.0000
  H   H3        1.0  0.05437  0.33915  0.35663  1.0000
  H   H4        1.0  0.94563  0.16085  0.85663  1.0000
  H   H5        1.0  0.00077  0.51008  0.75848  1.0000
  H   H6        1.0  0.99923  0.98994  0.25849  1.0000
  H   H7        1.0  0.99923  0.48994  0.24151  1.0000
  H   H8        1.0  0.00078  0.01006  0.74151  1.0000
  H   H9        1.0  0.22550  0.47808  0.59572  1.0000
  H   H10       1.0  0.77449  0.02193  0.09572  1.0000
  H   H11       1.0  0.77449  0.52193  0.40427  1.0000
  H   H12       1.0  0.22551  0.97807  0.90428  1.0000
  H   H13       1.0  0.29584  0.62019  0.37541  1.0000
  H   H14       1.0  0.70417  0.87980  0.87541  1.0000
  H   H15       1.0  0.70416  0.37982  0.62458  1.0000
  H   H16       1.0  0.29584  0.12019  0.12459  1.0000
  H   H17       1.0  0.12771  0.72809  0.40780  1.0000
  H   H18       1.0  0.87230  0.77191  0.90780  1.0000
  H   H19       1.0  0.87228  0.27192  0.59220  1.0000
  H   H20       1.0  0.12771  0.22808  0.09220  1.0000
  H   H21       1.0  0.09514  0.63756  0.01530  1.0000
  H   H22       1.0  0.90487  0.86244  0.51530  1.0000
  H   H23       1.0  0.90487  0.36244  0.98471  1.0000
  H   H24       1.0  0.09514  0.13756  0.48470  1.0000
  C   C1        1.0  0.98718  0.54242  0.64697  1.0000
  C   C2        1.0  0.01282  0.95759  0.14696  1.0000
  C   C3        1.0  0.01282  0.45759  0.35303  1.0000
  C   C4        1.0  0.98718  0.04241  0.85303  1.0000
  C   C5        1.0  0.15969  0.60603  0.42376  1.0000
  C   C6        1.0  0.84032  0.89397  0.92377  1.0000
  C   C7        1.0  0.84031  0.39398  0.57623  1.0000
  C   C8        1.0  0.15969  0.10602  0.07624  1.0000
  N   N1        1.0  0.17332  0.58073  0.57918  1.0000
  N   N2        1.0  0.82668  0.91927  0.07918  1.0000
  N   N3        1.0  0.82668  0.41927  0.42082  1.0000
  N   N4        1.0  0.17333  0.08073  0.92082  1.0000
  O   O1        1.0  0.34663  0.80382  0.87637  1.0000
  O   O2        1.0  0.65337  0.69618  0.37637  1.0000
  O   O3        1.0  0.65338  0.19617  0.12363  1.0000
  O   O4        1.0  0.34663  0.30382  0.62363  1.0000
  O   O5        1.0  0.38341  0.66150  0.11348  1.0000
  O   O6        1.0  0.61658  0.83850  0.61349  1.0000
  O   O7        1.0  0.61658  0.33849  0.88652  1.0000
  O   O8        1.0  0.38342  0.16150  0.38652  1.0000
  O   O9        1.0  0.25329  0.47488  0.89243  1.0000
  O   O10       1.0  0.74671  0.02512  0.39243  1.0000
  O   O11       1.0  0.74669  0.52510  0.10758  1.0000
  O   O12       1.0  0.25329  0.97487  0.60757  1.0000
