data_image0
_chemical_formula_structural       Cu4H16C24N16O8
_chemical_formula_sum              "Cu4 H16 C24 N16 O8"
_cell_length_a       5.90715
_cell_length_b       10.1579
_cell_length_c       12.4573
_cell_angle_alpha    90.004
_cell_angle_beta     90.0004
_cell_angle_gamma    89.9994

_space_group_name_H-M_alt    "P 1"
_space_group_IT_number       1

loop_
  _space_group_symop_operation_xyz
  'x, y, z'

loop_
  _atom_site_type_symbol
  _atom_site_label
  _atom_site_symmetry_multiplicity
  _atom_site_fract_x
  _atom_site_fract_y
  _atom_site_fract_z
  _atom_site_occupancy
  Cu  Cu1       1.0  0.20678  0.18897  0.98734  1.0000
  Cu  Cu2       1.0  0.29331  0.81104  0.48733  1.0000
  Cu  Cu3       1.0  0.79323  0.68899  0.51268  1.0000
  Cu  Cu4       1.0  0.70678  0.31100  0.01265  1.0000
  H   H1        1.0  0.21690  0.97051  0.28125  1.0000
  H   H2        1.0  0.28312  0.02948  0.78126  1.0000
  H   H3        1.0  0.78314  0.47053  0.21875  1.0000
  H   H4        1.0  0.71687  0.52949  0.71876  1.0000
  H   H5        1.0  0.67836  0.24521  0.34477  1.0000
  H   H6        1.0  0.82171  0.75474  0.84479  1.0000
  H   H7        1.0  0.32169  0.74529  0.15522  1.0000
  H   H8        1.0  0.17836  0.25479  0.65520  1.0000
  H   H9        1.0  0.71009  0.18415  0.54120  1.0000
  H   H10       1.0  0.78986  0.81585  0.04121  1.0000
  H   H11       1.0  0.28984  0.68415  0.95880  1.0000
  H   H12       1.0  0.21009  0.31587  0.45877  1.0000
  H   H13       1.0  0.99284  0.01483  0.59486  1.0000
  H   H14       1.0  0.50710  0.98517  0.09485  1.0000
  H   H15       1.0  0.00710  0.51482  0.90518  1.0000
  H   H16       1.0  0.49282  0.48519  0.40515  1.0000
  C   C1        1.0  0.10359  0.02050  0.33679  1.0000
  C   C2        1.0  0.39644  0.97949  0.83679  1.0000
  C   C3        1.0  0.89642  0.52049  0.16321  1.0000
  C   C4        1.0  0.60358  0.47950  0.66322  1.0000
  C   C5        1.0  0.95127  0.11516  0.29931  1.0000
  C   C6        1.0  0.54877  0.88483  0.79933  1.0000
  C   C7        1.0  0.04870  0.61516  0.20068  1.0000
  C   C8        1.0  0.45127  0.38484  0.70068  1.0000
  C   C9        1.0  0.80327  0.17410  0.37273  1.0000
  C   C10       1.0  0.69676  0.82587  0.87274  1.0000
  C   C11       1.0  0.19673  0.67413  0.12729  1.0000
  C   C12       1.0  0.30328  0.32591  0.62725  1.0000
  C   C13       1.0  0.81919  0.13993  0.48073  1.0000
  C   C14       1.0  0.68078  0.86007  0.98073  1.0000
  C   C15       1.0  0.18078  0.63993  0.01928  1.0000
  C   C16       1.0  0.31917  0.36009  0.51925  1.0000
  C   C17       1.0  0.97683  0.04523  0.51138  1.0000
  C   C18       1.0  0.52316  0.95478  0.01136  1.0000
  C   C19       1.0  0.02316  0.54522  0.98864  1.0000
  C   C20       1.0  0.47681  0.45479  0.48862  1.0000
  C   C21       1.0  0.94974  0.15272  0.18285  1.0000
  C   C22       1.0  0.55030  0.84726  0.68288  1.0000
  C   C23       1.0  0.05022  0.65272  0.31713  1.0000
  C   C24       1.0  0.44974  0.34725  0.81713  1.0000
  N   N1        1.0  0.11381  0.98471  0.44045  1.0000
  N   N2        1.0  0.38617  0.01529  0.94044  1.0000
  N   N3        1.0  0.88619  0.48471  0.05955  1.0000
  N   N4        1.0  0.61378  0.51528  0.55956  1.0000
  N   N5        1.0  0.88227  0.17484  0.92848  1.0000
  N   N6        1.0  0.61773  0.82519  0.42850  1.0000
  N   N7        1.0  0.11775  0.67481  0.57151  1.0000
  N   N8        1.0  0.38226  0.32513  0.07149  1.0000
  N   N9        1.0  0.85929  0.16531  0.83223  1.0000
  N   N10       1.0  0.64068  0.83475  0.33225  1.0000
  N   N11       1.0  0.14072  0.66525  0.66777  1.0000
  N   N12       1.0  0.35930  0.33469  0.16774  1.0000
  N   N13       1.0  0.83489  0.15304  0.74016  1.0000
  N   N14       1.0  0.66508  0.84696  0.24018  1.0000
  N   N15       1.0  0.16515  0.65304  0.75983  1.0000
  N   N16       1.0  0.33492  0.34698  0.25981  1.0000
  O   O1        1.0  0.10948  0.10718  0.12482  1.0000
  O   O2        1.0  0.39052  0.89280  0.62487  1.0000
  O   O3        1.0  0.89050  0.60721  0.37518  1.0000
  O   O4        1.0  0.60946  0.39279  0.87518  1.0000
  O   O5        1.0  0.79102  0.22944  0.15347  1.0000
  O   O6        1.0  0.70904  0.77059  0.65350  1.0000
  O   O7        1.0  0.20901  0.72942  0.34647  1.0000
  O   O8        1.0  0.29103  0.27053  0.84651  1.0000
