data_image0
_chemical_formula_structural       Cu4H16C24N16O8
_chemical_formula_sum              "Cu4 H16 C24 N16 O8"
_cell_length_a       4.89103
_cell_length_b       10.5379
_cell_length_c       14.3873
_cell_angle_alpha    90.0007
_cell_angle_beta     89.9985
_cell_angle_gamma    90.3642

_space_group_name_H-M_alt    "P 1"
_space_group_IT_number       1

loop_
  _space_group_symop_operation_xyz
  'x, y, z'

loop_
  _atom_site_type_symbol
  _atom_site_label
  _atom_site_symmetry_multiplicity
  _atom_site_fract_x
  _atom_site_fract_y
  _atom_site_fract_z
  _atom_site_occupancy
  Cu  Cu1       1.0  0.36579  0.05670  0.09143  1.0000
  Cu  Cu2       1.0  0.13422  0.44330  0.59143  1.0000
  Cu  Cu3       1.0  0.63421  0.94330  0.90857  1.0000
  Cu  Cu4       1.0  0.86577  0.55670  0.40858  1.0000
  H   H1        1.0  0.04292  0.75565  0.27434  1.0000
  H   H2        1.0  0.45706  0.74434  0.77433  1.0000
  H   H3        1.0  0.95707  0.24435  0.72566  1.0000
  H   H4        1.0  0.54294  0.25566  0.22567  1.0000
  H   H5        1.0  0.49144  0.06740  0.32073  1.0000
  H   H6        1.0  0.00855  0.43260  0.82073  1.0000
  H   H7        1.0  0.50856  0.93261  0.67927  1.0000
  H   H8        1.0  0.99147  0.56740  0.17927  1.0000
  H   H9        1.0  0.28371  0.94179  0.45164  1.0000
  H   H10       1.0  0.21626  0.55822  0.95163  1.0000
  H   H11       1.0  0.71628  0.05822  0.54836  1.0000
  H   H12       1.0  0.78375  0.44178  0.04837  1.0000
  H   H13       1.0  0.46060  0.72292  0.48236  1.0000
  H   H14       1.0  0.03935  0.77708  0.98235  1.0000
  H   H15       1.0  0.53938  0.27708  0.51764  1.0000
  H   H16       1.0  0.96064  0.22291  0.01765  1.0000
  C   C1        1.0  0.87330  0.80018  0.31067  1.0000
  C   C2        1.0  0.62669  0.69982  0.81066  1.0000
  C   C3        1.0  0.12669  0.19982  0.68933  1.0000
  C   C4        1.0  0.37331  0.30018  0.18934  1.0000
  C   C5        1.0  0.78243  0.92144  0.28742  1.0000
  C   C6        1.0  0.71756  0.57856  0.78741  1.0000
  C   C7        1.0  0.21756  0.07856  0.71258  1.0000
  C   C8        1.0  0.28245  0.42144  0.21259  1.0000
  C   C9        1.0  0.56627  0.97336  0.33794  1.0000
  C   C10       1.0  0.93372  0.52665  0.83794  1.0000
  C   C11       1.0  0.43373  0.02665  0.66206  1.0000
  C   C12       1.0  0.06629  0.47335  0.16206  1.0000
  C   C13       1.0  0.45052  0.90375  0.41030  1.0000
  C   C14       1.0  0.04945  0.59625  0.91029  1.0000
  C   C15       1.0  0.54947  0.09625  0.58970  1.0000
  C   C16       1.0  0.95056  0.40375  0.08971  1.0000
  C   C17       1.0  0.54896  0.78308  0.42855  1.0000
  C   C18       1.0  0.95101  0.71693  0.92854  1.0000
  C   C19       1.0  0.45103  0.21692  0.57144  1.0000
  C   C20       1.0  0.04899  0.28307  0.07146  1.0000
  C   C21       1.0  0.90888  0.99497  0.20876  1.0000
  C   C22       1.0  0.59113  0.50502  0.70875  1.0000
  C   C23       1.0  0.09113  0.00503  0.79124  1.0000
  C   C24       1.0  0.40889  0.49498  0.29125  1.0000
  N   N1        1.0  0.75552  0.73246  0.37911  1.0000
  N   N2        1.0  0.74445  0.76754  0.87911  1.0000
  N   N3        1.0  0.24447  0.26754  0.62088  1.0000
  N   N4        1.0  0.25555  0.23246  0.12090  1.0000
  N   N5        1.0  0.47646  0.88998  0.03496  1.0000
  N   N6        1.0  0.02350  0.61002  0.53496  1.0000
  N   N7        1.0  0.52353  0.11001  0.96504  1.0000
  N   N8        1.0  0.97648  0.38998  0.46504  1.0000
  N   N9        1.0  0.50129  0.78889  0.07454  1.0000
  N   N10       1.0  0.99871  0.71112  0.57455  1.0000
  N   N11       1.0  0.49871  0.21111  0.92546  1.0000
  N   N12       1.0  0.00129  0.28888  0.42546  1.0000
  N   N13       1.0  0.52492  0.69095  0.11061  1.0000
  N   N14       1.0  0.97510  0.80906  0.61060  1.0000
  N   N15       1.0  0.47509  0.30905  0.88940  1.0000
  N   N16       1.0  0.02490  0.19095  0.38939  1.0000
  O   O1        1.0  0.76996  0.07902  0.16935  1.0000
  O   O2        1.0  0.73005  0.42096  0.66935  1.0000
  O   O3        1.0  0.23004  0.92097  0.83064  1.0000
  O   O4        1.0  0.26997  0.57902  0.33066  1.0000
  O   O5        1.0  0.15657  0.96475  0.18809  1.0000
  O   O6        1.0  0.34345  0.53524  0.68807  1.0000
  O   O7        1.0  0.84344  0.03524  0.81191  1.0000
  O   O8        1.0  0.65658  0.46475  0.31192  1.0000
