data_image0
_chemical_formula_structural       Zn3H34C38N4O12
_chemical_formula_sum              "Zn3 H34 C38 N4 O12"
_cell_length_a       9.78256
_cell_length_b       10.1646
_cell_length_c       11.1652
_cell_angle_alpha    113.092
_cell_angle_beta     99.518
_cell_angle_gamma    110.373

_space_group_name_H-M_alt    "P 1"
_space_group_IT_number       1

loop_
  _space_group_symop_operation_xyz
  'x, y, z'

loop_
  _atom_site_type_symbol
  _atom_site_label
  _atom_site_symmetry_multiplicity
  _atom_site_fract_x
  _atom_site_fract_y
  _atom_site_fract_z
  _atom_site_occupancy
  Zn  Zn1       1.0  1.00000  1.00000  0.50000  1.0000
  Zn  Zn2       1.0  0.30076  0.14663  0.77210  1.0000
  Zn  Zn3       1.0  0.69924  0.85337  0.22790  1.0000
  H   H1        1.0  0.21796  0.32176  0.36358  1.0000
  H   H2        1.0  0.78205  0.67825  0.63642  1.0000
  H   H3        1.0  0.82328  0.29841  0.75745  1.0000
  H   H4        1.0  0.17673  0.70161  0.24255  1.0000
  H   H5        1.0  0.62713  0.47459  0.69605  1.0000
  H   H6        1.0  0.37287  0.52541  0.30395  1.0000
  H   H7        1.0  0.36146  0.90012  0.61643  1.0000
  H   H8        1.0  0.63854  0.09987  0.38356  1.0000
  H   H9        1.0  0.51255  0.84364  0.62144  1.0000
  H   H10       1.0  0.48746  0.15636  0.37856  1.0000
  H   H11       1.0  0.25319  0.50556  0.08920  1.0000
  H   H12       1.0  0.74682  0.49445  0.91080  1.0000
  H   H13       1.0  0.77276  0.20915  0.12165  1.0000
  H   H14       1.0  0.22724  0.79084  0.87835  1.0000
  H   H15       1.0  0.07248  0.68256  0.39962  1.0000
  H   H16       1.0  0.92752  0.31744  0.60038  1.0000
  H   H17       1.0  0.67095  0.05577  0.58096  1.0000
  H   H18       1.0  0.32905  0.94424  0.41904  1.0000
  H   H19       1.0  0.56166  0.16229  0.63121  1.0000
  H   H20       1.0  0.43834  0.83772  0.36880  1.0000
  H   H21       1.0  0.99357  0.60736  0.73993  1.0000
  H   H22       1.0  0.00642  0.39263  0.26007  1.0000
  H   H23       1.0  0.74876  0.91873  0.74435  1.0000
  H   H24       1.0  0.25123  0.08126  0.25565  1.0000
  H   H25       1.0  0.76337  0.89887  0.89715  1.0000
  H   H26       1.0  0.23662  0.10112  0.10285  1.0000
  H   H27       1.0  0.89729  0.07241  0.90431  1.0000
  H   H28       1.0  0.10270  0.92759  0.09569  1.0000
  H   H29       1.0  0.42187  0.32656  0.06355  1.0000
  H   H30       1.0  0.57811  0.67343  0.93646  1.0000
  H   H31       1.0  0.62409  0.45346  0.15174  1.0000
  H   H32       1.0  0.37589  0.54652  0.84826  1.0000
  H   H33       1.0  0.52706  0.30573  0.19544  1.0000
  H   H34       1.0  0.47292  0.69425  0.80455  1.0000
  C   C1        1.0  0.41335  0.38635  0.53345  1.0000
  C   C2        1.0  0.58665  0.61365  0.46655  1.0000
  C   C3        1.0  0.32107  0.26615  0.57094  1.0000
  C   C4        1.0  0.67893  0.73385  0.42906  1.0000
  C   C5        1.0  0.08952  0.27271  0.82178  1.0000
  C   C6        1.0  0.91049  0.72729  0.17822  1.0000
  C   C7        1.0  0.34121  0.40054  0.42293  1.0000
  C   C8        1.0  0.65879  0.59946  0.57708  1.0000
  C   C9        1.0  0.08800  0.83749  0.66635  1.0000
  C   C10       1.0  0.91200  0.16251  0.33365  1.0000
  C   C11       1.0  0.90052  0.38757  0.86365  1.0000
  C   C12       1.0  0.09949  0.61243  0.13635  1.0000
  C   C13       1.0  0.57262  0.48637  0.61013  1.0000
  C   C14       1.0  0.42738  0.51363  0.38986  1.0000
  C   C15       1.0  0.03850  0.66261  0.57823  1.0000
  C   C16       1.0  0.96149  0.33739  0.42177  1.0000
  C   C17       1.0  0.48841  0.94729  0.64912  1.0000
  C   C18       1.0  0.51159  0.05272  0.35088  1.0000
  C   C19       1.0  0.67421  0.06245  0.89385  1.0000
  C   C20       1.0  0.32579  0.93754  0.10615  1.0000
  C   C21       1.0  0.14194  0.50312  0.05130  1.0000
  C   C22       1.0  0.85807  0.49689  0.94870  1.0000
  C   C23       1.0  0.68682  0.17028  0.02456  1.0000
  C   C24       1.0  0.31317  0.82971  0.97544  1.0000
  C   C25       1.0  0.04184  0.60181  0.44285  1.0000
  C   C26       1.0  0.95816  0.39818  0.55714  1.0000
  C   C27       1.0  0.55299  0.04166  0.57582  1.0000
  C   C28       1.0  0.44701  0.95835  0.42418  1.0000
  C   C29       1.0  0.04261  0.38945  0.91387  1.0000
  C   C30       1.0  0.95740  0.61055  0.08613  1.0000
  C   C31       1.0  0.99629  0.55952  0.63476  1.0000
  C   C32       1.0  0.00370  0.44048  0.36524  1.0000
  C   C33       1.0  0.77445  0.98293  0.85642  1.0000
  C   C34       1.0  0.22554  0.01706  0.14358  1.0000
  C   C35       1.0  0.53250  0.33019  0.10853  1.0000
  C   C36       1.0  0.46749  0.66980  0.89147  1.0000
  C   C37       1.0  0.56775  0.21382  0.00397  1.0000
  C   C38       1.0  0.43224  0.78618  0.99603  1.0000
  N   N1        1.0  0.48387  0.13494  0.86676  1.0000
  N   N2        1.0  0.51613  0.86505  0.13323  1.0000
  N   N3        1.0  0.54967  0.04256  0.80039  1.0000
  N   N4        1.0  0.45033  0.95744  0.19961  1.0000
  O   O1        1.0  0.14463  0.93101  0.61192  1.0000
  O   O2        1.0  0.85537  0.06899  0.38808  1.0000
  O   O3        1.0  0.18170  0.16644  0.49006  1.0000
  O   O4        1.0  0.81830  0.83356  0.50994  1.0000
  O   O5        1.0  0.21753  0.27883  0.88242  1.0000
  O   O6        1.0  0.78249  0.72117  0.11758  1.0000
  O   O7        1.0  0.39195  0.27359  0.68196  1.0000
  O   O8        1.0  0.60805  0.72642  0.31804  1.0000
  O   O9        1.0  0.00496  0.18014  0.69506  1.0000
  O   O10       1.0  0.99505  0.81987  0.30494  1.0000
  O   O11       1.0  0.08780  0.89272  0.78700  1.0000
  O   O12       1.0  0.91221  0.10728  0.21300  1.0000
