data_image0
_chemical_formula_structural       Sm4H28C32N4O32
_chemical_formula_sum              "Sm4 H28 C32 N4 O32"
_cell_length_a       7.54398
_cell_length_b       9.91411
_cell_length_c       14.8732
_cell_angle_alpha    89.9998
_cell_angle_beta     97.9048
_cell_angle_gamma    90.0002

_space_group_name_H-M_alt    "P 1"
_space_group_IT_number       1

loop_
  _space_group_symop_operation_xyz
  'x, y, z'

loop_
  _atom_site_type_symbol
  _atom_site_label
  _atom_site_symmetry_multiplicity
  _atom_site_fract_x
  _atom_site_fract_y
  _atom_site_fract_z
  _atom_site_occupancy
  Sm  Sm1       1.0  0.14367  0.04284  0.85710  1.0000
  Sm  Sm2       1.0  0.35633  0.54284  0.64290  1.0000
  Sm  Sm3       1.0  0.85633  0.95716  0.14290  1.0000
  Sm  Sm4       1.0  0.64367  0.45716  0.35710  1.0000
  H   H1        1.0  0.39278  0.28390  0.02077  1.0000
  H   H2        1.0  0.10722  0.78390  0.47923  1.0000
  H   H3        1.0  0.60723  0.71610  0.97923  1.0000
  H   H4        1.0  0.89279  0.21611  0.52077  1.0000
  H   H5        1.0  0.16915  0.61593  0.85618  1.0000
  H   H6        1.0  0.33084  0.11593  0.64382  1.0000
  H   H7        1.0  0.83084  0.38407  0.14382  1.0000
  H   H8        1.0  0.66915  0.88408  0.35618  1.0000
  H   H9        1.0  0.21064  0.61817  0.14832  1.0000
  H   H10       1.0  0.28938  0.11817  0.35168  1.0000
  H   H11       1.0  0.78938  0.38183  0.85168  1.0000
  H   H12       1.0  0.71064  0.88183  0.64832  1.0000
  H   H13       1.0  0.03262  0.27203  0.70650  1.0000
  H   H14       1.0  0.46738  0.77203  0.79351  1.0000
  H   H15       1.0  0.96738  0.72797  0.29351  1.0000
  H   H16       1.0  0.53262  0.22797  0.20650  1.0000
  H   H17       1.0  0.92042  0.13658  0.67922  1.0000
  H   H18       1.0  0.57959  0.63658  0.82078  1.0000
  H   H19       1.0  0.07959  0.86342  0.32078  1.0000
  H   H20       1.0  0.42042  0.36342  0.17922  1.0000
  H   H21       1.0  0.75169  0.05061  0.79279  1.0000
  H   H22       1.0  0.74831  0.55060  0.70721  1.0000
  H   H23       1.0  0.24831  0.94939  0.20721  1.0000
  H   H24       1.0  0.25169  0.44939  0.29279  1.0000
  H   H25       1.0  0.78461  0.94210  0.86916  1.0000
  H   H26       1.0  0.71539  0.44210  0.63084  1.0000
  H   H27       1.0  0.21539  0.05790  0.13084  1.0000
  H   H28       1.0  0.28461  0.55790  0.36916  1.0000
  C   C1        1.0  0.33089  0.38301  0.01374  1.0000
  C   C2        1.0  0.16912  0.88301  0.48626  1.0000
  C   C3        1.0  0.66912  0.61699  0.98626  1.0000
  C   C4        1.0  0.83089  0.11699  0.51374  1.0000
  C   C5        1.0  0.28089  0.43787  0.92752  1.0000
  C   C6        1.0  0.21911  0.93786  0.57248  1.0000
  C   C7        1.0  0.71911  0.56214  0.07248  1.0000
  C   C8        1.0  0.78089  0.06214  0.42752  1.0000
  C   C9        1.0  0.20600  0.56686  0.92167  1.0000
  C   C10       1.0  0.29400  0.06686  0.57833  1.0000
  C   C11       1.0  0.79400  0.43314  0.07833  1.0000
  C   C12       1.0  0.70600  0.93314  0.42167  1.0000
  C   C13       1.0  0.17678  0.63247  0.00141  1.0000
  C   C14       1.0  0.32322  0.13247  0.49860  1.0000
  C   C15       1.0  0.82322  0.36753  0.99860  1.0000
  C   C16       1.0  0.67679  0.86753  0.50141  1.0000
  C   C17       1.0  0.22993  0.56870  0.08479  1.0000
  C   C18       1.0  0.27007  0.06870  0.41521  1.0000
  C   C19       1.0  0.77007  0.43130  0.91521  1.0000
  C   C20       1.0  0.72993  0.93130  0.58479  1.0000
  C   C21       1.0  0.30965  0.35827  0.84489  1.0000
  C   C22       1.0  0.19033  0.85826  0.65511  1.0000
  C   C23       1.0  0.69034  0.64174  0.15510  1.0000
  C   C24       1.0  0.80966  0.14174  0.34489  1.0000
  C   C25       1.0  0.09160  0.76952  0.99871  1.0000
  C   C26       1.0  0.40840  0.26952  0.50130  1.0000
  C   C27       1.0  0.90841  0.23049  0.00130  1.0000
  C   C28       1.0  0.59160  0.73049  0.49871  1.0000
  C   C29       1.0  0.54477  0.96801  0.96118  1.0000
  C   C30       1.0  0.95522  0.46801  0.53881  1.0000
  C   C31       1.0  0.45522  0.03199  0.03880  1.0000
  C   C32       1.0  0.04477  0.53199  0.46118  1.0000
  N   N1        1.0  0.30856  0.44690  0.09083  1.0000
  N   N2        1.0  0.19145  0.94690  0.40917  1.0000
  N   N3        1.0  0.69145  0.55310  0.90917  1.0000
  N   N4        1.0  0.80856  0.05310  0.59083  1.0000
  O   O1        1.0  0.33488  0.23178  0.85411  1.0000
  O   O2        1.0  0.16511  0.73177  0.64588  1.0000
  O   O3        1.0  0.66511  0.76823  0.14588  1.0000
  O   O4        1.0  0.83489  0.26822  0.35411  1.0000
  O   O5        1.0  0.30546  0.42089  0.77060  1.0000
  O   O6        1.0  0.19451  0.92088  0.72940  1.0000
  O   O7        1.0  0.69451  0.57912  0.22940  1.0000
  O   O8        1.0  0.80546  0.07911  0.27060  1.0000
  O   O9        1.0  0.03246  0.80789  0.07023  1.0000
  O   O10       1.0  0.46755  0.30789  0.42977  1.0000
  O   O11       1.0  0.96756  0.19211  0.92978  1.0000
  O   O12       1.0  0.53245  0.69210  0.57023  1.0000
  O   O13       1.0  0.08519  0.83654  0.92581  1.0000
  O   O14       1.0  0.41482  0.33654  0.57419  1.0000
  O   O15       1.0  0.91482  0.16346  0.07419  1.0000
  O   O16       1.0  0.58519  0.66346  0.42581  1.0000
  O   O17       1.0  0.44762  0.94651  0.88623  1.0000
  O   O18       1.0  0.05236  0.44652  0.61375  1.0000
  O   O19       1.0  0.55237  0.05348  0.11375  1.0000
  O   O20       1.0  0.94762  0.55349  0.38623  1.0000
  O   O21       1.0  0.71024  0.94084  0.97884  1.0000
  O   O22       1.0  0.78975  0.44085  0.52115  1.0000
  O   O23       1.0  0.28975  0.05915  0.02115  1.0000
  O   O24       1.0  0.21024  0.55915  0.47884  1.0000
  O   O25       1.0  0.99649  0.18604  0.73069  1.0000
  O   O26       1.0  0.50352  0.68604  0.76931  1.0000
  O   O27       1.0  0.00352  0.81396  0.26931  1.0000
  O   O28       1.0  0.49649  0.31395  0.23069  1.0000
  O   O29       1.0  0.82566  0.97224  0.81150  1.0000
  O   O30       1.0  0.67434  0.47224  0.68850  1.0000
  O   O31       1.0  0.17434  0.02776  0.18850  1.0000
  O   O32       1.0  0.32566  0.52775  0.31150  1.0000
