data_image0
_chemical_formula_structural       Dy4H28C32N4O32
_chemical_formula_sum              "Dy4 H28 C32 N4 O32"
_cell_length_a       7.46546
_cell_length_b       9.84084
_cell_length_c       14.6888
_cell_angle_alpha    90
_cell_angle_beta     97.7991
_cell_angle_gamma    90.0001

_space_group_name_H-M_alt    "P 1"
_space_group_IT_number       1

loop_
  _space_group_symop_operation_xyz
  'x, y, z'

loop_
  _atom_site_type_symbol
  _atom_site_label
  _atom_site_symmetry_multiplicity
  _atom_site_fract_x
  _atom_site_fract_y
  _atom_site_fract_z
  _atom_site_occupancy
  Dy  Dy1       1.0  0.35394  0.45553  0.64239  1.0000
  Dy  Dy2       1.0  0.14606  0.95554  0.85761  1.0000
  Dy  Dy3       1.0  0.64606  0.54446  0.35761  1.0000
  Dy  Dy4       1.0  0.85394  0.04446  0.14238  1.0000
  H   H1        1.0  0.20854  0.38015  0.14979  1.0000
  H   H2        1.0  0.29146  0.88015  0.35021  1.0000
  H   H3        1.0  0.79147  0.61986  0.85022  1.0000
  H   H4        1.0  0.70854  0.11986  0.64979  1.0000
  H   H5        1.0  0.16843  0.38176  0.85388  1.0000
  H   H6        1.0  0.33158  0.88176  0.64612  1.0000
  H   H7        1.0  0.83157  0.61824  0.14612  1.0000
  H   H8        1.0  0.66843  0.11824  0.35388  1.0000
  H   H9        1.0  0.39274  0.71659  0.02039  1.0000
  H   H10       1.0  0.10725  0.21658  0.47961  1.0000
  H   H11       1.0  0.60726  0.28341  0.97961  1.0000
  H   H12       1.0  0.89274  0.78342  0.52039  1.0000
  H   H13       1.0  0.03653  0.72919  0.70828  1.0000
  H   H14       1.0  0.46347  0.22919  0.79172  1.0000
  H   H15       1.0  0.96347  0.27081  0.29172  1.0000
  H   H16       1.0  0.53653  0.77081  0.20828  1.0000
  H   H17       1.0  0.92199  0.86522  0.68029  1.0000
  H   H18       1.0  0.57801  0.36522  0.81971  1.0000
  H   H19       1.0  0.07801  0.13478  0.31971  1.0000
  H   H20       1.0  0.42198  0.63478  0.18029  1.0000
  H   H21       1.0  0.75949  0.94653  0.79386  1.0000
  H   H22       1.0  0.74051  0.44653  0.70614  1.0000
  H   H23       1.0  0.24052  0.05347  0.20615  1.0000
  H   H24       1.0  0.25948  0.55347  0.29386  1.0000
  H   H25       1.0  0.79059  0.05796  0.86982  1.0000
  H   H26       1.0  0.70941  0.55797  0.63018  1.0000
  H   H27       1.0  0.20941  0.94203  0.13018  1.0000
  H   H28       1.0  0.29059  0.44203  0.36982  1.0000
  C   C1        1.0  0.22809  0.42975  0.08540  1.0000
  C   C2        1.0  0.27191  0.92974  0.41460  1.0000
  C   C3        1.0  0.77192  0.57026  0.91461  1.0000
  C   C4        1.0  0.72808  0.07026  0.58540  1.0000
  C   C5        1.0  0.17525  0.36540  0.00098  1.0000
  C   C6        1.0  0.32476  0.86540  0.49902  1.0000
  C   C7        1.0  0.82475  0.63460  0.99902  1.0000
  C   C8        1.0  0.67524  0.13460  0.50098  1.0000
  C   C9        1.0  0.20498  0.43141  0.92015  1.0000
  C   C10       1.0  0.29503  0.93141  0.57985  1.0000
  C   C11       1.0  0.79502  0.56859  0.07986  1.0000
  C   C12       1.0  0.70497  0.06859  0.42015  1.0000
  C   C13       1.0  0.28025  0.56148  0.92606  1.0000
  C   C14       1.0  0.21975  0.06147  0.57394  1.0000
  C   C15       1.0  0.71975  0.43852  0.07394  1.0000
  C   C16       1.0  0.78025  0.93852  0.42606  1.0000
  C   C17       1.0  0.33045  0.61666  0.01338  1.0000
  C   C18       1.0  0.16955  0.11666  0.48662  1.0000
  C   C19       1.0  0.66955  0.38334  0.98662  1.0000
  C   C20       1.0  0.83045  0.88334  0.51338  1.0000
  C   C21       1.0  0.09126  0.22679  0.99860  1.0000
  C   C22       1.0  0.40875  0.72679  0.50140  1.0000
  C   C23       1.0  0.90876  0.77321  0.00140  1.0000
  C   C24       1.0  0.59125  0.27321  0.49860  1.0000
  C   C25       1.0  0.30956  0.64187  0.84254  1.0000
  C   C26       1.0  0.19044  0.14187  0.65746  1.0000
  C   C27       1.0  0.69044  0.35813  0.15746  1.0000
  C   C28       1.0  0.80957  0.85813  0.34254  1.0000
  C   C29       1.0  0.54488  0.03156  0.96059  1.0000
  C   C30       1.0  0.95512  0.53155  0.53941  1.0000
  C   C31       1.0  0.45511  0.96845  0.03941  1.0000
  C   C32       1.0  0.04488  0.46845  0.46059  1.0000
  N   N1        1.0  0.30747  0.55245  0.09140  1.0000
  N   N2        1.0  0.19253  0.05245  0.40860  1.0000
  N   N3        1.0  0.69253  0.44756  0.90860  1.0000
  N   N4        1.0  0.80746  0.94755  0.59140  1.0000
  O   O1        1.0  0.02730  0.18947  0.07021  1.0000
  O   O2        1.0  0.47271  0.68948  0.42979  1.0000
  O   O3        1.0  0.97271  0.81052  0.92979  1.0000
  O   O4        1.0  0.52729  0.31052  0.57021  1.0000
  O   O5        1.0  0.09141  0.15762  0.92596  1.0000
  O   O6        1.0  0.40861  0.65761  0.57404  1.0000
  O   O7        1.0  0.90860  0.84239  0.07404  1.0000
  O   O8        1.0  0.59140  0.34239  0.42596  1.0000
  O   O9        1.0  0.30861  0.57857  0.76766  1.0000
  O   O10       1.0  0.19140  0.07857  0.73234  1.0000
  O   O11       1.0  0.69138  0.42143  0.23234  1.0000
  O   O12       1.0  0.80861  0.92143  0.26766  1.0000
  O   O13       1.0  0.33234  0.76965  0.85174  1.0000
  O   O14       1.0  0.16767  0.26964  0.64826  1.0000
  O   O15       1.0  0.66767  0.23035  0.14826  1.0000
  O   O16       1.0  0.83234  0.73036  0.35174  1.0000
  O   O17       1.0  0.44743  0.04931  0.88413  1.0000
  O   O18       1.0  0.05256  0.54931  0.61587  1.0000
  O   O19       1.0  0.55255  0.95069  0.11587  1.0000
  O   O20       1.0  0.94744  0.45069  0.38413  1.0000
  O   O21       1.0  0.71100  0.06199  0.97897  1.0000
  O   O22       1.0  0.78900  0.56199  0.52103  1.0000
  O   O23       1.0  0.28898  0.93802  0.02103  1.0000
  O   O24       1.0  0.21101  0.43801  0.47897  1.0000
  O   O25       1.0  0.99889  0.81568  0.73251  1.0000
  O   O26       1.0  0.50110  0.31569  0.76749  1.0000
  O   O27       1.0  0.00111  0.18432  0.26749  1.0000
  O   O28       1.0  0.49889  0.68431  0.23251  1.0000
  O   O29       1.0  0.83336  0.02618  0.81202  1.0000
  O   O30       1.0  0.66664  0.52618  0.68798  1.0000
  O   O31       1.0  0.16664  0.97382  0.18798  1.0000
  O   O32       1.0  0.33335  0.47382  0.31202  1.0000
