data_image0
_chemical_formula_structural       Zn4P4H20C8N16O12
_chemical_formula_sum              "Zn4 P4 H20 C8 N16 O12"
_cell_length_a       7.2378
_cell_length_b       9.57839
_cell_length_c       10.2386
_cell_angle_alpha    110.272
_cell_angle_beta     90
_cell_angle_gamma    90

_space_group_name_H-M_alt    "P 1"
_space_group_IT_number       1

loop_
  _space_group_symop_operation_xyz
  'x, y, z'

loop_
  _atom_site_type_symbol
  _atom_site_label
  _atom_site_symmetry_multiplicity
  _atom_site_fract_x
  _atom_site_fract_y
  _atom_site_fract_z
  _atom_site_occupancy
  Zn  Zn1       1.0  0.38226  0.34104  0.33800  1.0000
  Zn  Zn2       1.0  0.88226  0.65896  0.16200  1.0000
  Zn  Zn3       1.0  0.61774  0.65897  0.66200  1.0000
  Zn  Zn4       1.0  0.11774  0.34104  0.83800  1.0000
  P   P1        1.0  0.77829  0.49238  0.36907  1.0000
  P   P2        1.0  0.27829  0.50762  0.13094  1.0000
  P   P3        1.0  0.22171  0.50762  0.63093  1.0000
  P   P4        1.0  0.72171  0.49238  0.86906  1.0000
  H   H1        1.0  0.17533  0.72330  0.96340  1.0000
  H   H2        1.0  0.67533  0.27671  0.53660  1.0000
  H   H3        1.0  0.82467  0.27671  0.03660  1.0000
  H   H4        1.0  0.32467  0.72329  0.46340  1.0000
  H   H5        1.0  0.25429  0.79569  0.84724  1.0000
  H   H6        1.0  0.75429  0.20431  0.65276  1.0000
  H   H7        1.0  0.74571  0.20431  0.15276  1.0000
  H   H8        1.0  0.24571  0.79569  0.34724  1.0000
  H   H9        1.0  0.10732  0.11725  0.08236  1.0000
  H   H10       1.0  0.60732  0.88275  0.41764  1.0000
  H   H11       1.0  0.89268  0.88275  0.91764  1.0000
  H   H12       1.0  0.39268  0.11725  0.58236  1.0000
  H   H13       1.0  0.51970  0.80010  0.07651  1.0000
  H   H14       1.0  0.01970  0.19989  0.42349  1.0000
  H   H15       1.0  0.48030  0.19990  0.92349  1.0000
  H   H16       1.0  0.98029  0.80011  0.57651  1.0000
  H   H17       1.0  0.95763  0.44333  0.38473  1.0000
  H   H18       1.0  0.45763  0.55667  0.11527  1.0000
  H   H19       1.0  0.04237  0.55666  0.61527  1.0000
  H   H20       1.0  0.54237  0.44333  0.88473  1.0000
  C   C1        1.0  0.23187  0.06768  0.10756  1.0000
  C   C2        1.0  0.73187  0.93233  0.39244  1.0000
  C   C3        1.0  0.76813  0.93232  0.89244  1.0000
  C   C4        1.0  0.26813  0.06768  0.60756  1.0000
  C   C5        1.0  0.44258  0.90408  0.10765  1.0000
  C   C6        1.0  0.94258  0.09591  0.39235  1.0000
  C   C7        1.0  0.55742  0.09592  0.89235  1.0000
  C   C8        1.0  0.05742  0.90409  0.60765  1.0000
  N   N1        1.0  0.35719  0.13300  0.20355  1.0000
  N   N2        1.0  0.85719  0.86700  0.29645  1.0000
  N   N3        1.0  0.64281  0.86700  0.79645  1.0000
  N   N4        1.0  0.14281  0.13300  0.70355  1.0000
  N   N5        1.0  0.49085  0.02984  0.20476  1.0000
  N   N6        1.0  0.99084  0.97016  0.29524  1.0000
  N   N7        1.0  0.50916  0.97016  0.79524  1.0000
  N   N8        1.0  0.00915  0.02984  0.70476  1.0000
  N   N9        1.0  0.28242  0.92383  0.04457  1.0000
  N   N10       1.0  0.78242  0.07617  0.45542  1.0000
  N   N11       1.0  0.71758  0.07617  0.95542  1.0000
  N   N12       1.0  0.21758  0.92383  0.54458  1.0000
  N   N13       1.0  0.18229  0.81855  0.93874  1.0000
  N   N14       1.0  0.68229  0.18145  0.56126  1.0000
  N   N15       1.0  0.81771  0.18145  0.06126  1.0000
  N   N16       1.0  0.31771  0.81855  0.43874  1.0000
  O   O1        1.0  0.64988  0.36593  0.37523  1.0000
  O   O2        1.0  0.14988  0.63407  0.12477  1.0000
  O   O3        1.0  0.35012  0.63407  0.62477  1.0000
  O   O4        1.0  0.85012  0.36593  0.87523  1.0000
  O   O5        1.0  0.74751  0.64157  0.48845  1.0000
  O   O6        1.0  0.24751  0.35843  0.01155  1.0000
  O   O7        1.0  0.25249  0.35842  0.51155  1.0000
  O   O8        1.0  0.75249  0.64157  0.98845  1.0000
  O   O9        1.0  0.77015  0.50885  0.22515  1.0000
  O   O10       1.0  0.27015  0.49114  0.27485  1.0000
  O   O11       1.0  0.22985  0.49115  0.77485  1.0000
  O   O12       1.0  0.72985  0.50885  0.72516  1.0000
