data_image0
_chemical_formula_structural       Zn4P4H36C16N16O12
_chemical_formula_sum              "Zn4 P4 H36 C16 N16 O12"
_cell_length_a       8.96107
_cell_length_b       9.64284
_cell_length_c       10.726
_cell_angle_alpha    106.326
_cell_angle_beta     89.9999
_cell_angle_gamma    90

_space_group_name_H-M_alt    "P 1"
_space_group_IT_number       1

loop_
  _space_group_symop_operation_xyz
  'x, y, z'

loop_
  _atom_site_type_symbol
  _atom_site_label
  _atom_site_symmetry_multiplicity
  _atom_site_fract_x
  _atom_site_fract_y
  _atom_site_fract_z
  _atom_site_occupancy
  Zn  Zn1       1.0  0.03885  0.21464  0.65203  1.0000
  Zn  Zn2       1.0  0.53885  0.28536  0.34797  1.0000
  Zn  Zn3       1.0  0.96115  0.78536  0.34797  1.0000
  Zn  Zn4       1.0  0.46115  0.71464  0.65203  1.0000
  P   P1        1.0  0.31077  0.39429  0.57119  1.0000
  P   P2        1.0  0.81077  0.10571  0.42881  1.0000
  P   P3        1.0  0.68923  0.60571  0.42881  1.0000
  P   P4        1.0  0.18923  0.89429  0.57119  1.0000
  H   H1        1.0  0.03414  0.26430  0.17858  1.0000
  H   H2        1.0  0.53414  0.23570  0.82142  1.0000
  H   H3        1.0  0.96586  0.73570  0.82142  1.0000
  H   H4        1.0  0.46586  0.76430  0.17858  1.0000
  H   H5        1.0  0.83920  0.28667  0.20779  1.0000
  H   H6        1.0  0.33920  0.21333  0.79221  1.0000
  H   H7        1.0  0.16080  0.71333  0.79221  1.0000
  H   H8        1.0  0.66080  0.78667  0.20779  1.0000
  H   H9        1.0  0.95457  0.44077  0.23611  1.0000
  H   H10       1.0  0.45457  0.05923  0.76389  1.0000
  H   H11       1.0  0.04543  0.55923  0.76389  1.0000
  H   H12       1.0  0.54543  0.94077  0.23611  1.0000
  H   H13       1.0  0.77690  0.42213  0.68258  1.0000
  H   H14       1.0  0.27690  0.07787  0.31742  1.0000
  H   H15       1.0  0.22311  0.57787  0.31742  1.0000
  H   H16       1.0  0.72310  0.92213  0.68258  1.0000
  H   H17       1.0  0.73523  0.57095  0.82251  1.0000
  H   H18       1.0  0.23523  0.92905  0.17749  1.0000
  H   H19       1.0  0.26477  0.42905  0.17749  1.0000
  H   H20       1.0  0.76477  0.07095  0.82251  1.0000
  H   H21       1.0  0.61615  0.42079  0.77924  1.0000
  H   H22       1.0  0.11615  0.07921  0.22076  1.0000
  H   H23       1.0  0.38385  0.57921  0.22076  1.0000
  H   H24       1.0  0.88385  0.92079  0.77924  1.0000
  H   H25       1.0  0.61345  0.41779  0.08120  1.0000
  H   H26       1.0  0.11345  0.08221  0.91880  1.0000
  H   H27       1.0  0.38655  0.58221  0.91880  1.0000
  H   H28       1.0  0.88655  0.91779  0.08120  1.0000
  H   H29       1.0  0.73378  0.54748  0.15524  1.0000
  H   H30       1.0  0.23378  0.95252  0.84476  1.0000
  H   H31       1.0  0.26622  0.45252  0.84476  1.0000
  H   H32       1.0  0.76622  0.04748  0.15524  1.0000
  H   H33       1.0  0.21342  0.45062  0.49349  1.0000
  H   H34       1.0  0.71342  0.04938  0.50651  1.0000
  H   H35       1.0  0.78658  0.54938  0.50651  1.0000
  H   H36       1.0  0.28658  0.95062  0.49349  1.0000
  C   C1        1.0  0.93766  0.33116  0.17200  1.0000
  C   C2        1.0  0.43765  0.16884  0.82800  1.0000
  C   C3        1.0  0.06235  0.66884  0.82800  1.0000
  C   C4        1.0  0.56235  0.83116  0.17200  1.0000
  C   C5        1.0  0.91803  0.33280  0.03584  1.0000
  C   C6        1.0  0.41803  0.16720  0.96416  1.0000
  C   C7        1.0  0.08197  0.66720  0.96416  1.0000
  C   C8        1.0  0.58197  0.83280  0.03584  1.0000
  C   C9        1.0  0.82558  0.38609  0.86399  1.0000
  C   C10       1.0  0.32558  0.11391  0.13601  1.0000
  C   C11       1.0  0.17442  0.61390  0.13601  1.0000
  C   C12       1.0  0.67442  0.88609  0.86399  1.0000
  C   C13       1.0  0.73378  0.45299  0.78215  1.0000
  C   C14       1.0  0.23378  0.04701  0.21785  1.0000
  C   C15       1.0  0.26622  0.54701  0.21785  1.0000
  C   C16       1.0  0.76622  0.95299  0.78215  1.0000
  N   N1        1.0  0.94279  0.29946  0.82795  1.0000
  N   N2        1.0  0.44279  0.20054  0.17205  1.0000
  N   N3        1.0  0.05721  0.70054  0.17205  1.0000
  N   N4        1.0  0.55721  0.79946  0.82795  1.0000
  N   N5        1.0  0.00222  0.26710  0.93554  1.0000
  N   N6        1.0  0.50222  0.23290  0.06446  1.0000
  N   N7        1.0  0.99778  0.73290  0.06446  1.0000
  N   N8        1.0  0.49778  0.76710  0.93554  1.0000
  N   N9        1.0  0.80684  0.40817  0.99437  1.0000
  N   N10       1.0  0.30684  0.09183  0.00563  1.0000
  N   N11       1.0  0.19316  0.59183  0.00563  1.0000
  N   N12       1.0  0.69316  0.90817  0.99437  1.0000
  N   N13       1.0  0.69147  0.49071  0.06616  1.0000
  N   N14       1.0  0.19147  0.00929  0.93384  1.0000
  N   N15       1.0  0.30853  0.50929  0.93383  1.0000
  N   N16       1.0  0.80853  0.99070  0.06616  1.0000
  O   O1        1.0  0.21232  0.34154  0.66664  1.0000
  O   O2        1.0  0.71232  0.15846  0.33336  1.0000
  O   O3        1.0  0.78768  0.65846  0.33336  1.0000
  O   O4        1.0  0.28768  0.84154  0.66664  1.0000
  O   O5        1.0  0.39751  0.26810  0.48065  1.0000
  O   O6        1.0  0.89750  0.23190  0.51935  1.0000
  O   O7        1.0  0.60249  0.73190  0.51935  1.0000
  O   O8        1.0  0.10249  0.76810  0.48065  1.0000
  O   O9        1.0  0.41165  0.51724  0.64754  1.0000
  O   O10       1.0  0.91165  0.98276  0.35246  1.0000
  O   O11       1.0  0.58835  0.48276  0.35246  1.0000
  O   O12       1.0  0.08835  0.01724  0.64754  1.0000
