data_image0
_chemical_formula_structural       Ag4H28C36N8
_chemical_formula_sum              "Ag4 H28 C36 N8"
_cell_length_a       6.81089
_cell_length_b       9.90687
_cell_length_c       12.3965
_cell_angle_alpha    101.872
_cell_angle_beta     89.9997
_cell_angle_gamma    90.0008

_space_group_name_H-M_alt    "P 1"
_space_group_IT_number       1

loop_
  _space_group_symop_operation_xyz
  'x, y, z'

loop_
  _atom_site_type_symbol
  _atom_site_label
  _atom_site_symmetry_multiplicity
  _atom_site_fract_x
  _atom_site_fract_y
  _atom_site_fract_z
  _atom_site_occupancy
  Ag  Ag1       1.0  0.38972  0.99379  0.62335  1.0000
  Ag  Ag2       1.0  0.88972  0.00621  0.37665  1.0000
  Ag  Ag3       1.0  0.36946  0.95873  0.11878  1.0000
  Ag  Ag4       1.0  0.86947  0.04127  0.88122  1.0000
  H   H1        1.0  0.41092  0.70813  0.69990  1.0000
  H   H2        1.0  0.91092  0.29187  0.30010  1.0000
  H   H3        1.0  0.42452  0.68763  0.92038  1.0000
  H   H4        1.0  0.92454  0.31236  0.07962  1.0000
  H   H5        1.0  0.50346  0.16389  0.06301  1.0000
  H   H6        1.0  0.00345  0.83611  0.93700  1.0000
  H   H7        1.0  0.42650  0.40994  0.12834  1.0000
  H   H8        1.0  0.92649  0.59005  0.87166  1.0000
  H   H9        1.0  0.23443  0.53796  0.01076  1.0000
  H   H10       1.0  0.73441  0.46204  0.98924  1.0000
  H   H11       1.0  0.11845  0.41249  0.82497  1.0000
  H   H12       1.0  0.61843  0.58751  0.17503  1.0000
  H   H13       1.0  0.18003  0.16433  0.76390  1.0000
  H   H14       1.0  0.68001  0.83567  0.23610  1.0000
  H   H15       1.0  0.46405  0.26679  0.51321  1.0000
  H   H16       1.0  0.96405  0.73322  0.48678  1.0000
  H   H17       1.0  0.42572  0.24448  0.28631  1.0000
  H   H18       1.0  0.92574  0.75552  0.71369  1.0000
  H   H19       1.0  0.55461  0.78699  0.48317  1.0000
  H   H20       1.0  0.05462  0.21302  0.51684  1.0000
  H   H21       1.0  0.47788  0.54009  0.47248  1.0000
  H   H22       1.0  0.97789  0.45991  0.52752  1.0000
  H   H23       1.0  0.22295  0.42311  0.34108  1.0000
  H   H24       1.0  0.72295  0.57689  0.65892  1.0000
  H   H25       1.0  0.05144  0.55545  0.21759  1.0000
  H   H26       1.0  0.55143  0.44455  0.78240  1.0000
  H   H27       1.0  0.12517  0.80233  0.23034  1.0000
  H   H28       1.0  0.62518  0.19766  0.76965  1.0000
  C   C1        1.0  0.40037  0.78750  0.77434  1.0000
  C   C2        1.0  0.90037  0.21250  0.22566  1.0000
  C   C3        1.0  0.40643  0.77723  0.88374  1.0000
  C   C4        1.0  0.90644  0.22277  0.11626  1.0000
  C   C5        1.0  0.36956  0.99462  0.87615  1.0000
  C   C6        1.0  0.86955  0.00538  0.12385  1.0000
  C   C7        1.0  0.34119  0.14380  0.91031  1.0000
  C   C8        1.0  0.84118  0.85620  0.08969  1.0000
  C   C9        1.0  0.41274  0.21679  0.01215  1.0000
  C   C10       1.0  0.91272  0.78321  0.98785  1.0000
  C   C11       1.0  0.37304  0.35664  0.04801  1.0000
  C   C12       1.0  0.87302  0.64336  0.95199  1.0000
  C   C13       1.0  0.26643  0.42871  0.98188  1.0000
  C   C14       1.0  0.76641  0.57128  0.01812  1.0000
  C   C15       1.0  0.20087  0.35874  0.87867  1.0000
  C   C16       1.0  0.70085  0.64125  0.12133  1.0000
  C   C17       1.0  0.23611  0.21789  0.84366  1.0000
  C   C18       1.0  0.73609  0.78210  0.15634  1.0000
  C   C19       1.0  0.43246  0.17781  0.44832  1.0000
  C   C20       1.0  0.93247  0.82219  0.55168  1.0000
  C   C21       1.0  0.41142  0.16687  0.33597  1.0000
  C   C22       1.0  0.91143  0.83313  0.66403  1.0000
  C   C23       1.0  0.37493  0.96165  0.37234  1.0000
  C   C24       1.0  0.87494  0.03835  0.62767  1.0000
  C   C25       1.0  0.34071  0.81326  0.35997  1.0000
  C   C26       1.0  0.84072  0.18674  0.64003  1.0000
  C   C27       1.0  0.44066  0.73697  0.42692  1.0000
  C   C28       1.0  0.94066  0.26303  0.57308  1.0000
  C   C29       1.0  0.39861  0.59761  0.42002  1.0000
  C   C30       1.0  0.89861  0.40240  0.57998  1.0000
  C   C31       1.0  0.25704  0.53169  0.34570  1.0000
  C   C32       1.0  0.75704  0.46831  0.65430  1.0000
  C   C33       1.0  0.16112  0.60557  0.27652  1.0000
  C   C34       1.0  0.66112  0.39443  0.72348  1.0000
  C   C35       1.0  0.20319  0.74485  0.28319  1.0000
  C   C36       1.0  0.70320  0.25516  0.71681  1.0000
  N   N1        1.0  0.37685  0.92413  0.77002  1.0000
  N   N2        1.0  0.87684  0.07587  0.22998  1.0000
  N   N3        1.0  0.38623  0.90742  0.94743  1.0000
  N   N4        1.0  0.88623  0.09257  0.05257  1.0000
  N   N5        1.0  0.40883  0.04835  0.47071  1.0000
  N   N6        1.0  0.90884  0.95165  0.52930  1.0000
  N   N7        1.0  0.37456  0.03109  0.28871  1.0000
  N   N8        1.0  0.87458  0.96892  0.71129  1.0000
