data_image0
_chemical_formula_structural       Zn4H20C20O24
_chemical_formula_sum              "Zn4 H20 C20 O24"
_cell_length_a       5.15948
_cell_length_b       8.33693
_cell_length_c       16.2406
_cell_angle_alpha    90.0007
_cell_angle_beta     89.9998
_cell_angle_gamma    97.4983

_space_group_name_H-M_alt    "P 1"
_space_group_IT_number       1

loop_
  _space_group_symop_operation_xyz
  'x, y, z'

loop_
  _atom_site_type_symbol
  _atom_site_label
  _atom_site_symmetry_multiplicity
  _atom_site_fract_x
  _atom_site_fract_y
  _atom_site_fract_z
  _atom_site_occupancy
  Zn  Zn1       1.0  0.34032  0.37382  0.33509  1.0000
  Zn  Zn2       1.0  0.15969  0.12618  0.83509  1.0000
  Zn  Zn3       1.0  0.65968  0.62619  0.66490  1.0000
  Zn  Zn4       1.0  0.84031  0.87381  0.16490  1.0000
  H   H1        1.0  0.64640  0.65054  0.31136  1.0000
  H   H2        1.0  0.85361  0.84946  0.81136  1.0000
  H   H3        1.0  0.35361  0.34946  0.68864  1.0000
  H   H4        1.0  0.14641  0.15055  0.18864  1.0000
  H   H5        1.0  0.60337  0.64301  0.41013  1.0000
  H   H6        1.0  0.89665  0.85700  0.91013  1.0000
  H   H7        1.0  0.39665  0.35699  0.58987  1.0000
  H   H8        1.0  0.10337  0.14301  0.08988  1.0000
  H   H9        1.0  0.94412  0.52330  0.38591  1.0000
  H   H10       1.0  0.55589  0.97671  0.88591  1.0000
  H   H11       1.0  0.05590  0.47670  0.61409  1.0000
  H   H12       1.0  0.44412  0.02330  0.11409  1.0000
  H   H13       1.0  0.20098  0.56061  0.44506  1.0000
  H   H14       1.0  0.29903  0.93939  0.94506  1.0000
  H   H15       1.0  0.79904  0.43939  0.55494  1.0000
  H   H16       1.0  0.70097  0.06061  0.05494  1.0000
  H   H17       1.0  0.75125  0.36161  0.10156  1.0000
  H   H18       1.0  0.74873  0.13839  0.60156  1.0000
  H   H19       1.0  0.24874  0.63840  0.89843  1.0000
  H   H20       1.0  0.25127  0.86161  0.39843  1.0000
  C   C1        1.0  0.45940  0.55248  0.17635  1.0000
  C   C2        1.0  0.04058  0.94751  0.67635  1.0000
  C   C3        1.0  0.54059  0.44750  0.82365  1.0000
  C   C4        1.0  0.95941  0.05249  0.32365  1.0000
  C   C5        1.0  0.47182  0.52954  0.08466  1.0000
  C   C6        1.0  0.02814  0.97046  0.58466  1.0000
  C   C7        1.0  0.52815  0.47046  0.91534  1.0000
  C   C8        1.0  0.97184  0.02954  0.41534  1.0000
  C   C9        1.0  0.33139  0.60913  0.02672  1.0000
  C   C10       1.0  0.16859  0.89086  0.52672  1.0000
  C   C11       1.0  0.66859  0.39087  0.97327  1.0000
  C   C12       1.0  0.83140  0.10913  0.47327  1.0000
  C   C13       1.0  0.14497  0.72346  0.05184  1.0000
  C   C14       1.0  0.35502  0.77654  0.55184  1.0000
  C   C15       1.0  0.85503  0.27654  0.94816  1.0000
  C   C16       1.0  0.64497  0.22346  0.44816  1.0000
  C   C17       1.0  0.63775  0.42139  0.05712  1.0000
  C   C18       1.0  0.86223  0.07860  0.55712  1.0000
  C   C19       1.0  0.36223  0.57861  0.94287  1.0000
  C   C20       1.0  0.13776  0.92139  0.44287  1.0000
  O   O1        1.0  0.35326  0.42891  0.21545  1.0000
  O   O2        1.0  0.14672  0.07108  0.71545  1.0000
  O   O3        1.0  0.64674  0.57107  0.78455  1.0000
  O   O4        1.0  0.85326  0.92893  0.28455  1.0000
  O   O5        1.0  0.56844  0.68154  0.21000  1.0000
  O   O6        1.0  0.93155  0.81844  0.70999  1.0000
  O   O7        1.0  0.43156  0.31844  0.79001  1.0000
  O   O8        1.0  0.06844  0.18156  0.29001  1.0000
  O   O9        1.0  0.07201  0.71683  0.12723  1.0000
  O   O10       1.0  0.42798  0.78317  0.62723  1.0000
  O   O11       1.0  0.92800  0.28318  0.87277  1.0000
  O   O12       1.0  0.57202  0.21683  0.37277  1.0000
  O   O13       1.0  0.06871  0.81903  0.99911  1.0000
  O   O14       1.0  0.43130  0.68097  0.49910  1.0000
  O   O15       1.0  0.93128  0.18098  0.00089  1.0000
  O   O16       1.0  0.56872  0.31903  0.50090  1.0000
  O   O17       1.0  0.66086  0.58366  0.36195  1.0000
  O   O18       1.0  0.83916  0.91634  0.86195  1.0000
  O   O19       1.0  0.33916  0.41634  0.63805  1.0000
  O   O20       1.0  0.16086  0.08367  0.13805  1.0000
  O   O21       1.0  0.10175  0.47852  0.40810  1.0000
  O   O22       1.0  0.39826  0.02148  0.90809  1.0000
  O   O23       1.0  0.89827  0.52148  0.59191  1.0000
  O   O24       1.0  0.60174  0.97852  0.09191  1.0000
