data_image0
_chemical_formula_structural       Ag2H22C30S2N6O6
_chemical_formula_sum              "Ag2 H22 C30 S2 N6 O6"
_cell_length_a       7.51108
_cell_length_b       9.7729
_cell_length_c       10.2318
_cell_angle_alpha    79.6829
_cell_angle_beta     70.7012
_cell_angle_gamma    80.2326

_space_group_name_H-M_alt    "P 1"
_space_group_IT_number       1

loop_
  _space_group_symop_operation_xyz
  'x, y, z'

loop_
  _atom_site_type_symbol
  _atom_site_label
  _atom_site_symmetry_multiplicity
  _atom_site_fract_x
  _atom_site_fract_y
  _atom_site_fract_z
  _atom_site_occupancy
  Ag  Ag1       1.0  0.23359  0.65662  0.12676  1.0000
  Ag  Ag2       1.0  0.76641  0.34338  0.87324  1.0000
  H   H1        1.0  0.16583  0.89003  0.89966  1.0000
  H   H2        1.0  0.83417  0.10997  0.10034  1.0000
  H   H3        1.0  0.30538  0.95377  0.64241  1.0000
  H   H4        1.0  0.69464  0.04623  0.35759  1.0000
  H   H5        1.0  0.54504  0.78122  0.50348  1.0000
  H   H6        1.0  0.45496  0.21879  0.49652  1.0000
  H   H7        1.0  0.46694  0.49296  0.88587  1.0000
  H   H8        1.0  0.53306  0.50704  0.11413  1.0000
  H   H9        1.0  0.01705  0.14690  0.64458  1.0000
  H   H10       1.0  0.98295  0.85309  0.35542  1.0000
  H   H11       1.0  0.19787  0.07183  0.40987  1.0000
  H   H12       1.0  0.80213  0.92817  0.59013  1.0000
  H   H13       1.0  0.17171  0.22086  0.19248  1.0000
  H   H14       1.0  0.82829  0.77914  0.80752  1.0000
  H   H15       1.0  0.95049  0.44038  0.19868  1.0000
  H   H16       1.0  0.04951  0.55962  0.80132  1.0000
  H   H17       1.0  0.36025  0.86150  0.23048  1.0000
  H   H18       1.0  0.63975  0.13850  0.76952  1.0000
  H   H19       1.0  0.85088  0.97546  0.88866  1.0000
  H   H20       1.0  0.14911  0.02454  0.11134  1.0000
  H   H21       1.0  0.68961  0.61138  0.39820  1.0000
  H   H22       1.0  0.31038  0.38862  0.60180  1.0000
  C   C1        1.0  0.26908  0.81688  0.83579  1.0000
  C   C2        1.0  0.73092  0.18312  0.16421  1.0000
  C   C3        1.0  0.34780  0.85103  0.69225  1.0000
  C   C4        1.0  0.65220  0.14897  0.30775  1.0000
  C   C5        1.0  0.48084  0.75462  0.61568  1.0000
  C   C6        1.0  0.51917  0.24538  0.38432  1.0000
  C   C7        1.0  0.53107  0.62304  0.68476  1.0000
  C   C8        1.0  0.46893  0.37696  0.31524  1.0000
  C   C9        1.0  0.44082  0.59565  0.82856  1.0000
  C   C10       1.0  0.55917  0.40435  0.17145  1.0000
  C   C11       1.0  0.67143  0.51831  0.60925  1.0000
  C   C12       1.0  0.32857  0.48169  0.39075  1.0000
  C   C13       1.0  0.87757  0.33407  0.55234  1.0000
  C   C14       1.0  0.12243  0.66593  0.44766  1.0000
  C   C15       1.0  0.99992  0.20831  0.54854  1.0000
  C   C16       1.0  0.00008  0.79169  0.45146  1.0000
  C   C17       1.0  0.10168  0.16915  0.41739  1.0000
  C   C18       1.0  0.89832  0.83086  0.58261  1.0000
  C   C19       1.0  0.08602  0.25292  0.29315  1.0000
  C   C20       1.0  0.91398  0.74708  0.70685  1.0000
  C   C21       1.0  0.96416  0.37714  0.29490  1.0000
  C   C22       1.0  0.03584  0.62286  0.70510  1.0000
  C   C23       1.0  0.85932  0.41503  0.42671  1.0000
  C   C24       1.0  0.14068  0.58496  0.57330  1.0000
  C   C25       1.0  0.61605  0.90638  0.06440  1.0000
  C   C26       1.0  0.38395  0.09362  0.93560  1.0000
  C   C27       1.0  0.41943  0.92163  0.12899  1.0000
  C   C28       1.0  0.58057  0.07837  0.87101  1.0000
  C   C29       1.0  0.69724  0.98472  0.93606  1.0000
  C   C30       1.0  0.30276  0.01528  0.06394  1.0000
  S   S1        1.0  0.76425  0.78104  0.14360  1.0000
  S   S2        1.0  0.23574  0.21896  0.85640  1.0000
  N   N1        1.0  0.31612  0.69105  0.90269  1.0000
  N   N2        1.0  0.68388  0.30896  0.09731  1.0000
  N   N3        1.0  0.76082  0.40224  0.66410  1.0000
  N   N4        1.0  0.23918  0.59776  0.33590  1.0000
  N   N5        1.0  0.72820  0.52835  0.46714  1.0000
  N   N6        1.0  0.27180  0.47165  0.53286  1.0000
  O   O1        1.0  0.92883  0.85141  0.13205  1.0000
  O   O2        1.0  0.07116  0.14859  0.86795  1.0000
  O   O3        1.0  0.64320  0.75053  0.29001  1.0000
  O   O4        1.0  0.35679  0.24946  0.70999  1.0000
  O   O5        1.0  0.81485  0.66019  0.06678  1.0000
  O   O6        1.0  0.18515  0.33980  0.93323  1.0000
