data_image0
_chemical_formula_structural       Zn2H32C32N12O10
_chemical_formula_sum              "Zn2 H32 C32 N12 O10"
_cell_length_a       9.04306
_cell_length_b       10.3898
_cell_length_c       12.665
_cell_angle_alpha    112.259
_cell_angle_beta     93.8944
_cell_angle_gamma    113.188

_space_group_name_H-M_alt    "P 1"
_space_group_IT_number       1

loop_
  _space_group_symop_operation_xyz
  'x, y, z'

loop_
  _atom_site_type_symbol
  _atom_site_label
  _atom_site_symmetry_multiplicity
  _atom_site_fract_x
  _atom_site_fract_y
  _atom_site_fract_z
  _atom_site_occupancy
  Zn  Zn1       1.0  0.12201  0.08702  0.17364  1.0000
  Zn  Zn2       1.0  0.87799  0.91298  0.82636  1.0000
  H   H1        1.0  0.08828  0.59053  0.21258  1.0000
  H   H2        1.0  0.91172  0.40947  0.78742  1.0000
  H   H3        1.0  0.28606  0.33558  0.96039  1.0000
  H   H4        1.0  0.71394  0.66442  0.03961  1.0000
  H   H5        1.0  0.30508  0.76478  0.97414  1.0000
  H   H6        1.0  0.69493  0.23523  0.02586  1.0000
  H   H7        1.0  0.31498  0.64478  0.78369  1.0000
  H   H8        1.0  0.68502  0.35523  0.21632  1.0000
  H   H9        1.0  0.47282  0.58725  0.74213  1.0000
  H   H10       1.0  0.52719  0.41275  0.25787  1.0000
  H   H11       1.0  0.51876  0.74556  0.88388  1.0000
  H   H12       1.0  0.48124  0.25444  0.11612  1.0000
  H   H13       1.0  0.89154  0.84076  0.25941  1.0000
  H   H14       1.0  0.10846  0.15924  0.74059  1.0000
  H   H15       1.0  0.79454  0.15990  0.17750  1.0000
  H   H16       1.0  0.20546  0.84010  0.82250  1.0000
  H   H17       1.0  0.62984  0.71678  0.31077  1.0000
  H   H18       1.0  0.37015  0.28322  0.68924  1.0000
  H   H19       1.0  0.46361  0.68055  0.20407  1.0000
  H   H20       1.0  0.53639  0.31945  0.79593  1.0000
  H   H21       1.0  0.39135  0.86507  0.34754  1.0000
  H   H22       1.0  0.60865  0.13493  0.65246  1.0000
  H   H23       1.0  0.58340  0.94837  0.45307  1.0000
  H   H24       1.0  0.41660  0.05163  0.54693  1.0000
  H   H25       1.0  0.32550  0.76819  0.49072  1.0000
  H   H26       1.0  0.67449  0.23180  0.50927  1.0000
  H   H27       1.0  0.31813  0.60790  0.36734  1.0000
  H   H28       1.0  0.68187  0.39210  0.63266  1.0000
  H   H29       1.0  0.53516  0.88041  0.68575  1.0000
  H   H30       1.0  0.46483  0.11959  0.31425  1.0000
  H   H31       1.0  0.80921  0.63298  0.56182  1.0000
  H   H32       1.0  0.19079  0.36702  0.43819  1.0000
  C   C1        1.0  0.19432  0.69017  0.09801  1.0000
  C   C2        1.0  0.80568  0.30983  0.90199  1.0000
  C   C3        1.0  0.14796  0.57761  0.14010  1.0000
  C   C4        1.0  0.85203  0.42239  0.85989  1.0000
  C   C5        1.0  0.18041  0.44911  0.08994  1.0000
  C   C6        1.0  0.81959  0.55088  0.91006  1.0000
  C   C7        1.0  0.25727  0.43336  0.99713  1.0000
  C   C8        1.0  0.74273  0.56664  0.00287  1.0000
  C   C9        1.0  0.30042  0.54476  0.95306  1.0000
  C   C10       1.0  0.69958  0.45524  0.04694  1.0000
  C   C11       1.0  0.27049  0.67429  0.00418  1.0000
  C   C12       1.0  0.72950  0.32572  0.99582  1.0000
  C   C13       1.0  0.16477  0.83021  0.15586  1.0000
  C   C14       1.0  0.83523  0.16979  0.84414  1.0000
  C   C15       1.0  0.13971  0.33410  0.14085  1.0000
  C   C16       1.0  0.86029  0.66590  0.85915  1.0000
  C   C17       1.0  0.42232  0.63197  0.81597  1.0000
  C   C18       1.0  0.57768  0.36804  0.18403  1.0000
  C   C19       1.0  0.83040  0.90607  0.24439  1.0000
  C   C20       1.0  0.16960  0.09393  0.75561  1.0000
  C   C21       1.0  0.77775  0.06723  0.20267  1.0000
  C   C22       1.0  0.22226  0.93277  0.79734  1.0000
  C   C23       1.0  0.56063  0.77084  0.28506  1.0000
  C   C24       1.0  0.43937  0.22916  0.71494  1.0000
  C   C25       1.0  0.48514  0.83897  0.38232  1.0000
  C   C26       1.0  0.51485  0.16102  0.61768  1.0000
  C   C27       1.0  0.40077  0.72717  0.43531  1.0000
  C   C28       1.0  0.59923  0.27283  0.56469  1.0000
  C   C29       1.0  0.58219  0.80446  0.62992  1.0000
  C   C30       1.0  0.41781  0.19554  0.37008  1.0000
  C   C31       1.0  0.71935  0.67813  0.56317  1.0000
  C   C32       1.0  0.28065  0.32187  0.43683  1.0000
  N   N1        1.0  0.89656  0.01853  0.20962  1.0000
  N   N2        1.0  0.10344  0.98147  0.79038  1.0000
  N   N3        1.0  0.67900  0.88888  0.25715  1.0000
  N   N4        1.0  0.32100  0.11112  0.74285  1.0000
  N   N5        1.0  0.64255  0.99116  0.23123  1.0000
  N   N6        1.0  0.35745  0.00884  0.76877  1.0000
  N   N7        1.0  0.52330  0.72132  0.51228  1.0000
  N   N8        1.0  0.47670  0.27868  0.48772  1.0000
  N   N9        1.0  0.61031  0.64043  0.46773  1.0000
  N   N10       1.0  0.38969  0.35957  0.53227  1.0000
  N   N11       1.0  0.70632  0.77871  0.66480  1.0000
  N   N12       1.0  0.29368  0.22129  0.33520  1.0000
  O   O1        1.0  0.12727  0.85840  0.25314  1.0000
  O   O2        1.0  0.87273  0.14160  0.74686  1.0000
  O   O3        1.0  0.18237  0.91582  0.10031  1.0000
  O   O4        1.0  0.81763  0.08418  0.89969  1.0000
  O   O5        1.0  0.09569  0.36343  0.23584  1.0000
  O   O6        1.0  0.90431  0.63657  0.76416  1.0000
  O   O7        1.0  0.15732  0.20966  0.08335  1.0000
  O   O8        1.0  0.84267  0.79033  0.91665  1.0000
  O   O9        1.0  0.37169  0.51760  0.86029  1.0000
  O   O10       1.0  0.62832  0.48241  0.13971  1.0000
