data_image0
_chemical_formula_structural       H32Au4C44S8N12
_chemical_formula_sum              "H32 Au4 C44 S8 N12"
_cell_length_a       9.83503
_cell_length_b       10.5172
_cell_length_c       12.6719
_cell_angle_alpha    79.8819
_cell_angle_beta     78.7633
_cell_angle_gamma    73.0891

_space_group_name_H-M_alt    "P 1"
_space_group_IT_number       1

loop_
  _space_group_symop_operation_xyz
  'x, y, z'

loop_
  _atom_site_type_symbol
  _atom_site_label
  _atom_site_symmetry_multiplicity
  _atom_site_fract_x
  _atom_site_fract_y
  _atom_site_fract_z
  _atom_site_occupancy
  H   H1        1.0  0.63865  0.97172  0.51440  1.0000
  H   H2        1.0  0.36134  0.02829  0.48560  1.0000
  H   H3        1.0  0.85930  0.03389  0.53340  1.0000
  H   H4        1.0  0.14069  0.96612  0.46660  1.0000
  H   H5        1.0  0.96643  0.94751  0.70653  1.0000
  H   H6        1.0  0.03357  0.05249  0.29347  1.0000
  H   H7        1.0  0.84019  0.81215  0.85474  1.0000
  H   H8        1.0  0.15982  0.18785  0.14525  1.0000
  H   H9        1.0  0.17283  0.21738  0.68651  1.0000
  H   H10       1.0  0.82716  0.78262  0.31349  1.0000
  H   H11       1.0  0.04092  0.15074  0.86910  1.0000
  H   H12       1.0  0.95908  0.84926  0.13090  1.0000
  H   H13       1.0  0.13024  0.91324  0.96047  1.0000
  H   H14       1.0  0.86975  0.08676  0.03953  1.0000
  H   H15       1.0  0.59967  0.57186  0.87344  1.0000
  H   H16       1.0  0.40033  0.42813  0.12657  1.0000
  H   H17       1.0  0.58575  0.66760  0.04482  1.0000
  H   H18       1.0  0.41425  0.33238  0.95519  1.0000
  H   H19       1.0  0.77175  0.55161  0.16723  1.0000
  H   H20       1.0  0.22826  0.44837  0.83278  1.0000
  H   H21       1.0  0.96171  0.34971  0.11180  1.0000
  H   H22       1.0  0.03831  0.65028  0.88820  1.0000
  H   H23       1.0  0.59248  0.39315  0.67981  1.0000
  H   H24       1.0  0.40752  0.60685  0.32019  1.0000
  H   H25       1.0  0.42556  0.24912  0.69691  1.0000
  H   H26       1.0  0.57444  0.75088  0.30309  1.0000
  H   H27       1.0  0.43763  0.05626  0.84830  1.0000
  H   H28       1.0  0.56238  0.94374  0.15170  1.0000
  H   H29       1.0  0.61944  0.01606  0.97225  1.0000
  H   H30       1.0  0.38057  0.98394  0.02775  1.0000
  H   H31       1.0  0.34524  0.75923  0.86654  1.0000
  H   H32       1.0  0.65476  0.24077  0.13346  1.0000
  Au  Au1       1.0  0.35141  0.52102  0.53608  1.0000
  Au  Au2       1.0  0.64859  0.47898  0.46392  1.0000
  Au  Au3       1.0  0.03431  0.59562  0.55001  1.0000
  Au  Au4       1.0  0.96568  0.40439  0.44999  1.0000
  C   C1        1.0  0.30199  0.86099  0.82928  1.0000
  C   C2        1.0  0.69800  0.13901  0.17072  1.0000
  C   C3        1.0  0.62735  0.86140  0.67599  1.0000
  C   C4        1.0  0.37265  0.13860  0.32401  1.0000
  C   C5        1.0  0.68632  0.93981  0.58867  1.0000
  C   C6        1.0  0.31368  0.06020  0.41133  1.0000
  C   C7        1.0  0.81068  0.97160  0.59921  1.0000
  C   C8        1.0  0.18932  0.02841  0.40078  1.0000
  C   C9        1.0  0.86963  0.92438  0.69504  1.0000
  C   C10       1.0  0.13037  0.07563  0.30496  1.0000
  C   C11       1.0  0.79968  0.84862  0.77752  1.0000
  C   C12       1.0  0.20032  0.15138  0.22248  1.0000
  C   C13       1.0  0.36655  0.90938  0.72828  1.0000
  C   C14       1.0  0.63345  0.09063  0.27172  1.0000
  C   C15       1.0  0.20641  0.11646  0.72909  1.0000
  C   C16       1.0  0.79359  0.88354  0.27091  1.0000
  C   C17       1.0  0.13248  0.07856  0.83016  1.0000
  C   C18       1.0  0.86752  0.92145  0.16984  1.0000
  C   C19       1.0  0.18116  0.94802  0.88066  1.0000
  C   C20       1.0  0.81884  0.05198  0.11934  1.0000
  C   C21       1.0  0.49281  0.73109  0.61473  1.0000
  C   C22       1.0  0.50719  0.26891  0.38527  1.0000
  C   C23       1.0  0.78596  0.41055  0.90763  1.0000
  C   C24       1.0  0.21404  0.58944  0.09238  1.0000
  C   C25       1.0  0.67516  0.52445  0.93021  1.0000
  C   C26       1.0  0.32483  0.47554  0.06979  1.0000
  C   C27       1.0  0.66894  0.57736  0.02496  1.0000
  C   C28       1.0  0.33107  0.42263  0.97505  1.0000
  C   C29       1.0  0.77214  0.51403  0.09229  1.0000
  C   C30       1.0  0.22786  0.48596  0.90772  1.0000
  C   C31       1.0  0.87866  0.40065  0.06129  1.0000
  C   C32       1.0  0.12135  0.59934  0.93871  1.0000
  C   C33       1.0  0.69525  0.27413  0.81529  1.0000
  C   C34       1.0  0.30475  0.72587  0.18471  1.0000
  C   C35       1.0  0.59576  0.30778  0.74292  1.0000
  C   C36       1.0  0.40424  0.69222  0.25708  1.0000
  C   C37       1.0  0.50230  0.22786  0.75343  1.0000
  C   C38       1.0  0.49770  0.77213  0.24657  1.0000
  C   C39       1.0  0.50883  0.12123  0.83708  1.0000
  C   C40       1.0  0.49117  0.87876  0.16291  1.0000
  C   C41       1.0  0.60995  0.09865  0.90617  1.0000
  C   C42       1.0  0.39005  0.90135  0.09383  1.0000
  C   C43       1.0  0.88090  0.38490  0.71703  1.0000
  C   C44       1.0  0.11910  0.61510  0.28297  1.0000
  S   S1        1.0  0.65622  0.65669  0.54432  1.0000
  S   S2        1.0  0.34378  0.34331  0.45568  1.0000
  S   S3        1.0  0.32681  0.70376  0.62236  1.0000
  S   S4        1.0  0.67319  0.29625  0.37764  1.0000
  S   S5        1.0  0.96262  0.50638  0.72360  1.0000
  S   S6        1.0  0.03738  0.49362  0.27640  1.0000
  S   S7        1.0  0.90491  0.28790  0.61586  1.0000
  S   S8        1.0  0.09509  0.71210  0.38415  1.0000
  N   N1        1.0  0.67949  0.81739  0.76907  1.0000
  N   N2        1.0  0.32052  0.18261  0.23093  1.0000
  N   N3        1.0  0.49564  0.82788  0.67207  1.0000
  N   N4        1.0  0.50436  0.17212  0.32793  1.0000
  N   N5        1.0  0.88649  0.34842  0.97014  1.0000
  N   N6        1.0  0.11351  0.65157  0.02985  1.0000
  N   N7        1.0  0.79305  0.35406  0.80976  1.0000
  N   N8        1.0  0.20695  0.64594  0.19024  1.0000
  N   N9        1.0  0.70278  0.17333  0.89574  1.0000
  N   N10       1.0  0.29722  0.82667  0.10426  1.0000
  N   N11       1.0  0.32171  0.03334  0.67831  1.0000
  N   N12       1.0  0.67829  0.96666  0.32169  1.0000
