data_image0
_chemical_formula_structural       Y2H18C18N2O22
_chemical_formula_sum              "Y2 H18 C18 N2 O22"
_cell_length_a       7.4081
_cell_length_b       9.20391
_cell_length_c       11.4901
_cell_angle_alpha    72.2756
_cell_angle_beta     69.9775
_cell_angle_gamma    81.2014

_space_group_name_H-M_alt    "P 1"
_space_group_IT_number       1

loop_
  _space_group_symop_operation_xyz
  'x, y, z'

loop_
  _atom_site_type_symbol
  _atom_site_label
  _atom_site_symmetry_multiplicity
  _atom_site_fract_x
  _atom_site_fract_y
  _atom_site_fract_z
  _atom_site_occupancy
  Y   Y1        1.0  0.38773  0.94605  0.28000  1.0000
  Y   Y2        1.0  0.61228  0.05395  0.72000  1.0000
  H   H1        1.0  0.31689  0.34933  0.88694  1.0000
  H   H2        1.0  0.68310  0.65067  0.11306  1.0000
  H   H3        1.0  0.12695  0.81459  0.89817  1.0000
  H   H4        1.0  0.87305  0.18541  0.10183  1.0000
  H   H5        1.0  0.27369  0.49207  0.21937  1.0000
  H   H6        1.0  0.72632  0.50792  0.78063  1.0000
  H   H7        1.0  0.67607  0.88916  0.04475  1.0000
  H   H8        1.0  0.32393  0.11084  0.95525  1.0000
  H   H9        1.0  0.81094  0.89216  0.12966  1.0000
  H   H10       1.0  0.18907  0.10784  0.87034  1.0000
  H   H11       1.0  0.47316  0.60958  0.37028  1.0000
  H   H12       1.0  0.52682  0.39042  0.62973  1.0000
  H   H13       1.0  0.36182  0.64673  0.50422  1.0000
  H   H14       1.0  0.63816  0.35327  0.49578  1.0000
  H   H15       1.0  0.94820  0.99122  0.40461  1.0000
  H   H16       1.0  0.05181  0.00878  0.59539  1.0000
  H   H17       1.0  0.01558  0.94373  0.27150  1.0000
  H   H18       1.0  0.98443  0.05627  0.72850  1.0000
  C   C1        1.0  0.33913  0.24302  0.13370  1.0000
  C   C2        1.0  0.66087  0.75697  0.86630  1.0000
  C   C3        1.0  0.28960  0.40189  0.06428  1.0000
  C   C4        1.0  0.71040  0.59811  0.93572  1.0000
  C   C5        1.0  0.28107  0.43614  0.93903  1.0000
  C   C6        1.0  0.71892  0.56386  0.06097  1.0000
  C   C7        1.0  0.22375  0.58463  0.88275  1.0000
  C   C8        1.0  0.77624  0.41537  0.11725  1.0000
  C   C9        1.0  0.17364  0.70045  0.94549  1.0000
  C   C10       1.0  0.82636  0.29955  0.05451  1.0000
  C   C11       1.0  0.19779  0.66730  0.06643  1.0000
  C   C12       1.0  0.80221  0.33270  0.93358  1.0000
  C   C13       1.0  0.25529  0.51857  0.12491  1.0000
  C   C14       1.0  0.74471  0.48143  0.87509  1.0000
  C   C15       1.0  0.17514  0.79027  0.13288  1.0000
  C   C16       1.0  0.82486  0.20973  0.86712  1.0000
  C   C17       1.0  0.39359  0.99926  0.54223  1.0000
  C   C18       1.0  0.60642  0.00074  0.45776  1.0000
  N   N1        1.0  0.21460  0.62192  0.75213  1.0000
  N   N2        1.0  0.78539  0.37808  0.24787  1.0000
  O   O1        1.0  0.37628  0.21962  0.23831  1.0000
  O   O2        1.0  0.62372  0.78038  0.76169  1.0000
  O   O3        1.0  0.34106  0.13072  0.08892  1.0000
  O   O4        1.0  0.65894  0.86928  0.91108  1.0000
  O   O5        1.0  0.31020  0.78950  0.17796  1.0000
  O   O6        1.0  0.68980  0.21050  0.82204  1.0000
  O   O7        1.0  0.02913  0.88327  0.14071  1.0000
  O   O8        1.0  0.97087  0.11672  0.85929  1.0000
  O   O9        1.0  0.09842  0.72354  0.72005  1.0000
  O   O10       1.0  0.90158  0.27648  0.27996  1.0000
  O   O11       1.0  0.32717  0.54821  0.67696  1.0000
  O   O12       1.0  0.67280  0.45179  0.32304  1.0000
  O   O13       1.0  0.27357  0.97621  0.49340  1.0000
  O   O14       1.0  0.72644  0.02378  0.50659  1.0000
  O   O15       1.0  0.35509  0.02023  0.65166  1.0000
  O   O16       1.0  0.64492  0.97977  0.34833  1.0000
  O   O17       1.0  0.67496  0.90014  0.12895  1.0000
  O   O18       1.0  0.32504  0.09986  0.87105  1.0000
  O   O19       1.0  0.41189  0.69167  0.41043  1.0000
  O   O20       1.0  0.58811  0.30834  0.58957  1.0000
  O   O21       1.0  0.06138  0.95865  0.33904  1.0000
  O   O22       1.0  0.93863  0.04135  0.66096  1.0000
