data_image0
_chemical_formula_structural       Li2H24C18N2O6
_chemical_formula_sum              "Li2 H24 C18 N2 O6"
_cell_length_a       5.40429
_cell_length_b       7.47566
_cell_length_c       11.7654
_cell_angle_alpha    90.2493
_cell_angle_beta     88.6058
_cell_angle_gamma    79.5259

_space_group_name_H-M_alt    "P 1"
_space_group_IT_number       1

loop_
  _space_group_symop_operation_xyz
  'x, y, z'

loop_
  _atom_site_type_symbol
  _atom_site_label
  _atom_site_symmetry_multiplicity
  _atom_site_fract_x
  _atom_site_fract_y
  _atom_site_fract_z
  _atom_site_occupancy
  Li  Li1       1.0  0.34469  0.95728  0.41794  1.0000
  Li  Li2       1.0  0.65532  0.04272  0.58205  1.0000
  H   H1        1.0  0.67192  0.75530  0.73343  1.0000
  H   H2        1.0  0.32808  0.24471  0.26658  1.0000
  H   H3        1.0  0.67729  0.67248  0.95945  1.0000
  H   H4        1.0  0.32270  0.32752  0.04056  1.0000
  H   H5        1.0  0.19040  0.77284  0.03778  1.0000
  H   H6        1.0  0.80956  0.22717  0.96222  1.0000
  H   H7        1.0  0.91835  0.90561  0.85498  1.0000
  H   H8        1.0  0.08164  0.09439  0.14501  1.0000
  H   H9        1.0  0.65737  0.63580  0.48482  1.0000
  H   H10       1.0  0.34262  0.36420  0.51518  1.0000
  H   H11       1.0  0.58339  0.47300  0.38499  1.0000
  H   H12       1.0  0.41662  0.52700  0.61500  1.0000
  H   H13       1.0  0.05205  0.64601  0.38740  1.0000
  H   H14       1.0  0.94794  0.35400  0.61261  1.0000
  H   H15       1.0  0.02144  0.42447  0.34210  1.0000
  H   H16       1.0  0.97857  0.57553  0.65791  1.0000
  H   H17       1.0  0.99728  0.75151  0.20418  1.0000
  H   H18       1.0  0.00275  0.24848  0.79582  1.0000
  H   H19       1.0  0.94677  0.53632  0.15419  1.0000
  H   H20       1.0  0.05325  0.46367  0.84581  1.0000
  H   H21       1.0  0.50651  0.61544  0.17660  1.0000
  H   H22       1.0  0.49352  0.38456  0.82339  1.0000
  H   H23       1.0  0.55518  0.84676  0.17293  1.0000
  H   H24       1.0  0.44486  0.15324  0.82707  1.0000
  C   C1        1.0  0.51988  0.77026  0.79622  1.0000
  C   C2        1.0  0.48011  0.22974  0.20378  1.0000
  C   C3        1.0  0.51548  0.73163  0.91052  1.0000
  C   C4        1.0  0.48450  0.26837  0.08949  1.0000
  C   C5        1.0  0.26061  0.78344  0.95147  1.0000
  C   C6        1.0  0.73938  0.21656  0.04853  1.0000
  C   C7        1.0  0.11723  0.85143  0.86102  1.0000
  C   C8        1.0  0.88276  0.14856  0.13897  1.0000
  C   C9        1.0  0.19679  0.89868  0.65384  1.0000
  C   C10       1.0  0.80320  0.10133  0.34616  1.0000
  C   C11       1.0  0.66787  0.59542  0.39503  1.0000
  C   C12       1.0  0.33213  0.40458  0.60497  1.0000
  C   C13       1.0  0.93232  0.56836  0.34120  1.0000
  C   C14       1.0  0.06769  0.43164  0.65881  1.0000
  C   C15       1.0  0.88970  0.64249  0.21917  1.0000
  C   C16       1.0  0.11033  0.35750  0.78083  1.0000
  C   C17       1.0  0.60511  0.71576  0.21590  1.0000
  C   C18       1.0  0.39490  0.28425  0.78410  1.0000
  N   N1        1.0  0.27577  0.84282  0.76580  1.0000
  N   N2        1.0  0.72422  0.15718  0.23419  1.0000
  O   O1        1.0  0.96415  0.93919  0.64085  1.0000
  O   O2        1.0  0.03585  0.06082  0.35916  1.0000
  O   O3        1.0  0.37236  0.89930  0.57988  1.0000
  O   O4        1.0  0.62764  0.10070  0.42012  1.0000
  O   O5        1.0  0.52081  0.74275  0.33344  1.0000
  O   O6        1.0  0.47920  0.25725  0.66655  1.0000
