data_image0
_chemical_formula_structural       Ho2H30C36O18
_chemical_formula_sum              "Ho2 H30 C36 O18"
_cell_length_a       7.84388
_cell_length_b       9.47552
_cell_length_c       12.5527
_cell_angle_alpha    75.458
_cell_angle_beta     74.5314
_cell_angle_gamma    75.6805

_space_group_name_H-M_alt    "P 1"
_space_group_IT_number       1

loop_
  _space_group_symop_operation_xyz
  'x, y, z'

loop_
  _atom_site_type_symbol
  _atom_site_label
  _atom_site_symmetry_multiplicity
  _atom_site_fract_x
  _atom_site_fract_y
  _atom_site_fract_z
  _atom_site_occupancy
  Ho  Ho1       1.0  0.23296  0.20580  0.00034  1.0000
  Ho  Ho2       1.0  0.76704  0.79420  0.99966  1.0000
  H   H1        1.0  0.20787  0.50899  0.02595  1.0000
  H   H2        1.0  0.79213  0.49101  0.97405  1.0000
  H   H3        1.0  0.03301  0.46303  0.11210  1.0000
  H   H4        1.0  0.96698  0.53697  0.88790  1.0000
  H   H5        1.0  0.54791  0.33805  0.00244  1.0000
  H   H6        1.0  0.45209  0.66195  0.99756  1.0000
  H   H7        1.0  0.45588  0.43620  0.90499  1.0000
  H   H8        1.0  0.54412  0.56380  0.09502  1.0000
  H   H9        1.0  0.10305  0.90507  0.08992  1.0000
  H   H10       1.0  0.89694  0.09493  0.91009  1.0000
  H   H11       1.0  0.31670  0.87247  0.06083  1.0000
  H   H12       1.0  0.68330  0.12753  0.93917  1.0000
  H   H13       1.0  0.48009  0.42587  0.26177  1.0000
  H   H14       1.0  0.51991  0.57413  0.73823  1.0000
  H   H15       1.0  0.36382  0.37405  0.46798  1.0000
  H   H16       1.0  0.63619  0.62596  0.53201  1.0000
  H   H17       1.0  0.39482  0.22536  0.65794  1.0000
  H   H18       1.0  0.60519  0.77464  0.34206  1.0000
  H   H19       1.0  0.80518  0.83110  0.68804  1.0000
  H   H20       1.0  0.19482  0.16889  0.31196  1.0000
  H   H21       1.0  0.91928  0.87837  0.47998  1.0000
  H   H22       1.0  0.08072  0.12163  0.52002  1.0000
  H   H23       1.0  0.90788  0.04250  0.29105  1.0000
  H   H24       1.0  0.09212  0.95750  0.70895  1.0000
  H   H25       1.0  0.84686  0.21693  0.73363  1.0000
  H   H26       1.0  0.15314  0.78307  0.26637  1.0000
  H   H27       1.0  0.76983  0.30016  0.54593  1.0000
  H   H28       1.0  0.23016  0.69984  0.45407  1.0000
  H   H29       1.0  0.18801  0.54076  0.64642  1.0000
  H   H30       1.0  0.81198  0.45924  0.35359  1.0000
  C   C1        1.0  0.78379  0.27745  0.14087  1.0000
  C   C2        1.0  0.21620  0.72255  0.85913  1.0000
  C   C3        1.0  0.70466  0.23781  0.26414  1.0000
  C   C4        1.0  0.29534  0.76219  0.73586  1.0000
  C   C5        1.0  0.54743  0.33048  0.31450  1.0000
  C   C6        1.0  0.45256  0.66952  0.68549  1.0000
  C   C7        1.0  0.48223  0.30159  0.42917  1.0000
  C   C8        1.0  0.51778  0.69841  0.57082  1.0000
  C   C9        1.0  0.56702  0.17704  0.49944  1.0000
  C   C10       1.0  0.43299  0.82296  0.50056  1.0000
  C   C11       1.0  0.50803  0.14916  0.61823  1.0000
  C   C12       1.0  0.49197  0.85084  0.38176  1.0000
  C   C13       1.0  0.59439  0.02785  0.68508  1.0000
  C   C14       1.0  0.40561  0.97215  0.31492  1.0000
  C   C15       1.0  0.53702  0.00441  0.81098  1.0000
  C   C16       1.0  0.46298  0.99559  0.18902  1.0000
  C   C17       1.0  0.74201  0.92777  0.63401  1.0000
  C   C18       1.0  0.25799  0.07223  0.36599  1.0000
  C   C19       1.0  0.80425  0.95384  0.51883  1.0000
  C   C20       1.0  0.19575  0.04616  0.48116  1.0000
  C   C21       1.0  0.72128  0.07941  0.44845  1.0000
  C   C22       1.0  0.27872  0.92059  0.55155  1.0000
  C   C23       1.0  0.78831  0.11389  0.33042  1.0000
  C   C24       1.0  0.21169  0.88611  0.66958  1.0000
  C   C25       1.0  0.08212  0.31718  0.80906  1.0000
  C   C26       1.0  0.91788  0.68282  0.19094  1.0000
  C   C27       1.0  0.02475  0.37371  0.69998  1.0000
  C   C28       1.0  0.97525  0.62629  0.30002  1.0000
  C   C29       1.0  0.90488  0.30561  0.67194  1.0000
  C   C30       1.0  0.09512  0.69438  0.32806  1.0000
  C   C31       1.0  0.86293  0.35125  0.56743  1.0000
  C   C32       1.0  0.13707  0.64875  0.43257  1.0000
  C   C33       1.0  0.94105  0.46437  0.48538  1.0000
  C   C34       1.0  0.05895  0.53563  0.51462  1.0000
  C   C35       1.0  0.09695  0.48880  0.62348  1.0000
  C   C36       1.0  0.90305  0.51120  0.37652  1.0000
  O   O1        1.0  0.15826  0.42202  0.07771  1.0000
  O   O2        1.0  0.84174  0.57798  0.92229  1.0000
  O   O3        1.0  0.49211  0.33178  0.94172  1.0000
  O   O4        1.0  0.50789  0.66822  0.05829  1.0000
  O   O5        1.0  0.21097  0.95298  0.06150  1.0000
  O   O6        1.0  0.78902  0.04702  0.93850  1.0000
  O   O7        1.0  0.94647  0.21801  0.10468  1.0000
  O   O8        1.0  0.05352  0.78199  0.89532  1.0000
  O   O9        1.0  0.68650  0.37260  0.07784  1.0000
  O   O10       1.0  0.31350  0.62740  0.92216  1.0000
  O   O11       1.0  0.60132  0.88010  0.86796  1.0000
  O   O12       1.0  0.39870  0.11990  0.13204  1.0000
  O   O13       1.0  0.43236  0.10963  0.85507  1.0000
  O   O14       1.0  0.56764  0.89037  0.14493  1.0000
  O   O15       1.0  0.15983  0.39668  0.84350  1.0000
  O   O16       1.0  0.84018  0.60332  0.15650  1.0000
  O   O17       1.0  0.06029  0.18905  0.86722  1.0000
  O   O18       1.0  0.93971  0.81096  0.13278  1.0000
