data_image0
_chemical_formula_structural       Cu2H26C22N2O12
_chemical_formula_sum              "Cu2 H26 C22 N2 O12"
_cell_length_a       5.84093
_cell_length_b       8.79052
_cell_length_c       11.8244
_cell_angle_alpha    90
_cell_angle_beta     93.6962
_cell_angle_gamma    89.9997

_space_group_name_H-M_alt    "P 1"
_space_group_IT_number       1

loop_
  _space_group_symop_operation_xyz
  'x, y, z'

loop_
  _atom_site_type_symbol
  _atom_site_label
  _atom_site_symmetry_multiplicity
  _atom_site_fract_x
  _atom_site_fract_y
  _atom_site_fract_z
  _atom_site_occupancy
  Cu  Cu1       1.0  0.61326  0.19985  0.41269  1.0000
  Cu  Cu2       1.0  0.38674  0.69985  0.58731  1.0000
  H   H1        1.0  0.84952  0.07972  0.26489  1.0000
  H   H2        1.0  0.15048  0.57972  0.73511  1.0000
  H   H3        1.0  0.50308  0.55533  0.36862  1.0000
  H   H4        1.0  0.49691  0.05533  0.63138  1.0000
  H   H5        1.0  0.17027  0.62216  0.26449  1.0000
  H   H6        1.0  0.82972  0.12216  0.73551  1.0000
  H   H7        1.0  0.94472  0.59162  0.07948  1.0000
  H   H8        1.0  0.05528  0.09162  0.92052  1.0000
  H   H9        1.0  0.05982  0.40105  0.93955  1.0000
  H   H10       1.0  0.94018  0.90104  0.06044  1.0000
  H   H11       1.0  0.41120  0.24151  0.98426  1.0000
  H   H12       1.0  0.58880  0.74151  0.01574  1.0000
  H   H13       1.0  0.76014  0.20188  0.09318  1.0000
  H   H14       1.0  0.23987  0.70188  0.90682  1.0000
  H   H15       1.0  0.84451  0.32913  0.20492  1.0000
  H   H16       1.0  0.15549  0.82913  0.79508  1.0000
  H   H17       1.0  0.49605  0.00592  0.13068  1.0000
  H   H18       1.0  0.50395  0.50592  0.86932  1.0000
  H   H19       1.0  0.48479  0.76887  0.22486  1.0000
  H   H20       1.0  0.51521  0.26887  0.77514  1.0000
  H   H21       1.0  0.77406  0.83438  0.24376  1.0000
  H   H22       1.0  0.22594  0.33438  0.75624  1.0000
  H   H23       1.0  0.00105  0.34670  0.48557  1.0000
  H   H24       1.0  0.99895  0.84670  0.51443  1.0000
  H   H25       1.0  0.06628  0.20011  0.41948  1.0000
  H   H26       1.0  0.93372  0.70011  0.58052  1.0000
  C   C1        1.0  0.42089  0.45244  0.22554  1.0000
  C   C2        1.0  0.57910  0.95244  0.77446  1.0000
  C   C3        1.0  0.22316  0.54046  0.20178  1.0000
  C   C4        1.0  0.77683  0.04045  0.79821  1.0000
  C   C5        1.0  0.09657  0.52161  0.09853  1.0000
  C   C6        1.0  0.90343  0.02161  0.90147  1.0000
  C   C7        1.0  0.16132  0.41404  0.01962  1.0000
  C   C8        1.0  0.83868  0.91404  0.98038  1.0000
  C   C9        1.0  0.35684  0.32577  0.04506  1.0000
  C   C10       1.0  0.64316  0.82576  0.95494  1.0000
  C   C11       1.0  0.48956  0.34346  0.14695  1.0000
  C   C12       1.0  0.51044  0.84347  0.85305  1.0000
  C   C13       1.0  0.70585  0.25394  0.17191  1.0000
  C   C14       1.0  0.29415  0.75394  0.82809  1.0000
  C   C15       1.0  0.51883  0.01232  0.22370  1.0000
  C   C16       1.0  0.48117  0.51232  0.77630  1.0000
  C   C17       1.0  0.28726  0.04994  0.27007  1.0000
  C   C18       1.0  0.71274  0.54994  0.72993  1.0000
  C   C19       1.0  0.59714  0.85400  0.26713  1.0000
  C   C20       1.0  0.40286  0.35400  0.73287  1.0000
  C   C21       1.0  0.59254  0.83927  0.39550  1.0000
  C   C22       1.0  0.40746  0.33927  0.60450  1.0000
  N   N1        1.0  0.68850  0.13113  0.25782  1.0000
  N   N2        1.0  0.31150  0.63113  0.74218  1.0000
  O   O1        1.0  0.55521  0.46733  0.32314  1.0000
  O   O2        1.0  0.44478  0.96732  0.67686  1.0000
  O   O3        1.0  0.29472  0.13969  0.35756  1.0000
  O   O4        1.0  0.70528  0.63969  0.64244  1.0000
  O   O5        1.0  0.10832  0.99007  0.22782  1.0000
  O   O6        1.0  0.89168  0.49007  0.77217  1.0000
  O   O7        1.0  0.69910  0.93298  0.45906  1.0000
  O   O8        1.0  0.30090  0.43298  0.54094  1.0000
  O   O9        1.0  0.46914  0.72807  0.43043  1.0000
  O   O10       1.0  0.53086  0.22807  0.56957  1.0000
  O   O11       1.0  0.94148  0.24606  0.46307  1.0000
  O   O12       1.0  0.05852  0.74606  0.53693  1.0000
