data_image0
_chemical_formula_structural       Zn2H24C44N8Cl4O12
_chemical_formula_sum              "Zn2 H24 C44 N8 Cl4 O12"
_cell_length_a       7.30489
_cell_length_b       9.07885
_cell_length_c       15.2966
_cell_angle_alpha    90.0003
_cell_angle_beta     92.4937
_cell_angle_gamma    89.9994

_space_group_name_H-M_alt    "P 1"
_space_group_IT_number       1

loop_
  _space_group_symop_operation_xyz
  'x, y, z'

loop_
  _atom_site_type_symbol
  _atom_site_label
  _atom_site_symmetry_multiplicity
  _atom_site_fract_x
  _atom_site_fract_y
  _atom_site_fract_z
  _atom_site_occupancy
  Zn  Zn1       1.0  0.50000  0.00000  0.50000  1.0000
  Zn  Zn2       1.0  1.00000  0.50000  0.50000  1.0000
  H   H1        1.0  0.35439  0.50438  0.61318  1.0000
  H   H2        1.0  0.14560  0.00439  0.38682  1.0000
  H   H3        1.0  0.64559  0.49562  0.38683  1.0000
  H   H4        1.0  0.85439  0.99562  0.61318  1.0000
  H   H5        1.0  0.52980  0.72761  0.74514  1.0000
  H   H6        1.0  0.97021  0.22762  0.25486  1.0000
  H   H7        1.0  0.47020  0.27238  0.25486  1.0000
  H   H8        1.0  0.02979  0.77238  0.74514  1.0000
  H   H9        1.0  0.34705  0.31824  0.66961  1.0000
  H   H10       1.0  0.15295  0.81826  0.33038  1.0000
  H   H11       1.0  0.65294  0.68175  0.33039  1.0000
  H   H12       1.0  0.84705  0.18175  0.66962  1.0000
  H   H13       1.0  0.64100  0.10827  0.94195  1.0000
  H   H14       1.0  0.85901  0.60828  0.05806  1.0000
  H   H15       1.0  0.35902  0.89172  0.05805  1.0000
  H   H16       1.0  0.14100  0.39172  0.94195  1.0000
  H   H17       1.0  0.36418  0.04915  0.68761  1.0000
  H   H18       1.0  0.13582  0.54916  0.31239  1.0000
  H   H19       1.0  0.63582  0.95085  0.31239  1.0000
  H   H20       1.0  0.86418  0.45084  0.68761  1.0000
  H   H21       1.0  0.51377  0.94059  0.82415  1.0000
  H   H22       1.0  0.98623  0.44061  0.17585  1.0000
  H   H23       1.0  0.48624  0.05939  0.17584  1.0000
  H   H24       1.0  0.01377  0.55939  0.82416  1.0000
  C   C1        1.0  0.41644  0.72957  0.58469  1.0000
  C   C2        1.0  0.08356  0.22958  0.41530  1.0000
  C   C3        1.0  0.58355  0.27043  0.41531  1.0000
  C   C4        1.0  0.91643  0.77043  0.58470  1.0000
  C   C5        1.0  0.33745  0.71497  0.48973  1.0000
  C   C6        1.0  0.16254  0.21499  0.51027  1.0000
  C   C7        1.0  0.66254  0.28502  0.51027  1.0000
  C   C8        1.0  0.83745  0.78502  0.48973  1.0000
  C   C9        1.0  0.41214  0.60474  0.64131  1.0000
  C   C10       1.0  0.08787  0.10475  0.35868  1.0000
  C   C11       1.0  0.58785  0.39525  0.35870  1.0000
  C   C12       1.0  0.91212  0.89526  0.64131  1.0000
  C   C13       1.0  0.56900  0.30325  0.86884  1.0000
  C   C14       1.0  0.93100  0.80326  0.13116  1.0000
  C   C15       1.0  0.43101  0.69674  0.13116  1.0000
  C   C16       1.0  0.06900  0.19674  0.86884  1.0000
  C   C17       1.0  0.48228  0.61739  0.72599  1.0000
  C   C18       1.0  0.01773  0.11740  0.27400  1.0000
  C   C19       1.0  0.51772  0.38261  0.27402  1.0000
  C   C20       1.0  0.98227  0.88260  0.72600  1.0000
  C   C21       1.0  0.51279  0.51302  0.79255  1.0000
  C   C22       1.0  0.98722  0.01304  0.20744  1.0000
  C   C23       1.0  0.48721  0.48697  0.20746  1.0000
  C   C24       1.0  0.01278  0.98697  0.79255  1.0000
  C   C25       1.0  0.59899  0.53701  0.87674  1.0000
  C   C26       1.0  0.90101  0.03702  0.12325  1.0000
  C   C27       1.0  0.40101  0.46298  0.12326  1.0000
  C   C28       1.0  0.09900  0.96298  0.87675  1.0000
  C   C29       1.0  0.41528  0.26905  0.72695  1.0000
  C   C30       1.0  0.08473  0.76906  0.27304  1.0000
  C   C31       1.0  0.58473  0.73094  0.27304  1.0000
  C   C32       1.0  0.91527  0.23094  0.72696  1.0000
  C   C33       1.0  0.57769  0.15087  0.88145  1.0000
  C   C34       1.0  0.92231  0.65089  0.11855  1.0000
  C   C35       1.0  0.42231  0.84912  0.11855  1.0000
  C   C36       1.0  0.07770  0.34912  0.88145  1.0000
  C   C37       1.0  0.42320  0.11910  0.73915  1.0000
  C   C38       1.0  0.07682  0.61912  0.26085  1.0000
  C   C39       1.0  0.57682  0.88089  0.26085  1.0000
  C   C40       1.0  0.92318  0.38089  0.73916  1.0000
  C   C41       1.0  0.50700  0.05953  0.81575  1.0000
  C   C42       1.0  0.99301  0.55954  0.18425  1.0000
  C   C43       1.0  0.49301  0.94046  0.18425  1.0000
  C   C44       1.0  0.00700  0.44046  0.81575  1.0000
  N   N1        1.0  0.49145  0.35914  0.79006  1.0000
  N   N2        1.0  0.00855  0.85915  0.20993  1.0000
  N   N3        1.0  0.50856  0.64086  0.20994  1.0000
  N   N4        1.0  0.99145  0.14086  0.79007  1.0000
  N   N5        1.0  0.63176  0.41418  0.92212  1.0000
  N   N6        1.0  0.86824  0.91419  0.07788  1.0000
  N   N7        1.0  0.36825  0.58580  0.07789  1.0000
  N   N8        1.0  0.13177  0.08581  0.92212  1.0000
  Cl  Cl1       1.0  0.66577  0.70500  0.91626  1.0000
  Cl  Cl2       1.0  0.83424  0.20501  0.08373  1.0000
  Cl  Cl3       1.0  0.33423  0.29499  0.08374  1.0000
  Cl  Cl4       1.0  0.16577  0.79498  0.91626  1.0000
  O   O1        1.0  0.48411  0.85282  0.60720  1.0000
  O   O2        1.0  0.01588  0.35283  0.39280  1.0000
  O   O3        1.0  0.51589  0.14718  0.39281  1.0000
  O   O4        1.0  0.98410  0.64718  0.60720  1.0000
  O   O5        1.0  0.35979  0.82675  0.44073  1.0000
  O   O6        1.0  0.14021  0.32674  0.55926  1.0000
  O   O7        1.0  0.64020  0.17326  0.55927  1.0000
  O   O8        1.0  0.85978  0.67327  0.44073  1.0000
  O   O9        1.0  0.25784  0.59773  0.46584  1.0000
  O   O10       1.0  0.24216  0.09771  0.53416  1.0000
  O   O11       1.0  0.74215  0.40228  0.53416  1.0000
  O   O12       1.0  0.75784  0.90230  0.46584  1.0000
