data_image0
_chemical_formula_structural       Y4H32C24N4O28
_chemical_formula_sum              "Y4 H32 C24 N4 O28"
_cell_length_a       6.59311
_cell_length_b       6.77913
_cell_length_c       19.5099
_cell_angle_alpha    93.0373
_cell_angle_beta     90.0002
_cell_angle_gamma    90

_space_group_name_H-M_alt    "P 1"
_space_group_IT_number       1

loop_
  _space_group_symop_operation_xyz
  'x, y, z'

loop_
  _atom_site_type_symbol
  _atom_site_label
  _atom_site_symmetry_multiplicity
  _atom_site_fract_x
  _atom_site_fract_y
  _atom_site_fract_z
  _atom_site_occupancy
  Y   Y1        1.0  0.25922  0.76852  0.89789  1.0000
  Y   Y2        1.0  0.75921  0.73148  0.60211  1.0000
  Y   Y3        1.0  0.74078  0.23148  0.10211  1.0000
  Y   Y4        1.0  0.24078  0.26852  0.39789  1.0000
  H   H1        1.0  0.18322  0.27533  0.79464  1.0000
  H   H2        1.0  0.68322  0.22466  0.70536  1.0000
  H   H3        1.0  0.81678  0.72466  0.20536  1.0000
  H   H4        1.0  0.31678  0.77534  0.29464  1.0000
  H   H5        1.0  0.98497  0.19079  0.84505  1.0000
  H   H6        1.0  0.48498  0.30921  0.65494  1.0000
  H   H7        1.0  0.01503  0.80921  0.15495  1.0000
  H   H8        1.0  0.51502  0.69079  0.34506  1.0000
  H   H9        1.0  0.82365  0.49788  0.75082  1.0000
  H   H10       1.0  0.32365  0.00212  0.74918  1.0000
  H   H11       1.0  0.17635  0.50212  0.24918  1.0000
  H   H12       1.0  0.67635  0.99788  0.25082  1.0000
  H   H13       1.0  0.08915  0.49290  0.73641  1.0000
  H   H14       1.0  0.58915  0.00709  0.76359  1.0000
  H   H15       1.0  0.91085  0.50710  0.26359  1.0000
  H   H16       1.0  0.41084  0.99291  0.23641  1.0000
  H   H17       1.0  0.83639  0.41922  0.92591  1.0000
  H   H18       1.0  0.33639  0.08078  0.57409  1.0000
  H   H19       1.0  0.16361  0.58078  0.07409  1.0000
  H   H20       1.0  0.66361  0.91922  0.42591  1.0000
  H   H21       1.0  0.68983  0.46568  0.85249  1.0000
  H   H22       1.0  0.18982  0.03432  0.64751  1.0000
  H   H23       1.0  0.31018  0.53432  0.14751  1.0000
  H   H24       1.0  0.81017  0.96568  0.35249  1.0000
  H   H25       1.0  0.20829  0.95508  0.03339  1.0000
  H   H26       1.0  0.70829  0.54491  0.46661  1.0000
  H   H27       1.0  0.79171  0.04492  0.96661  1.0000
  H   H28       1.0  0.29171  0.45509  0.53339  1.0000
  H   H29       1.0  0.42197  0.85020  0.03849  1.0000
  H   H30       1.0  0.92197  0.64980  0.46151  1.0000
  H   H31       1.0  0.57803  0.14980  0.96151  1.0000
  H   H32       1.0  0.07803  0.35020  0.53849  1.0000
  C   C1        1.0  0.25430  0.29002  0.89988  1.0000
  C   C2        1.0  0.75430  0.20998  0.60012  1.0000
  C   C3        1.0  0.74570  0.70997  0.10012  1.0000
  C   C4        1.0  0.24570  0.79003  0.39988  1.0000
  C   C5        1.0  0.09967  0.30741  0.84263  1.0000
  C   C6        1.0  0.59967  0.19259  0.65737  1.0000
  C   C7        1.0  0.90033  0.69259  0.15737  1.0000
  C   C8        1.0  0.40033  0.80741  0.34264  1.0000
  C   C9        1.0  0.96976  0.55692  0.77005  1.0000
  C   C10       1.0  0.46976  0.94308  0.72994  1.0000
  C   C11       1.0  0.03024  0.44308  0.22995  1.0000
  C   C12       1.0  0.53024  0.05692  0.27006  1.0000
  C   C13       1.0  0.97724  0.77825  0.76088  1.0000
  C   C14       1.0  0.47725  0.72174  0.73910  1.0000
  C   C15       1.0  0.02276  0.22175  0.23912  1.0000
  C   C16       1.0  0.52275  0.27825  0.26090  1.0000
  C   C17       1.0  0.78011  0.72133  0.91538  1.0000
  C   C18       1.0  0.28010  0.77868  0.58462  1.0000
  C   C19       1.0  0.21990  0.27867  0.08462  1.0000
  C   C20       1.0  0.71990  0.22133  0.41538  1.0000
  C   C21       1.0  0.82222  0.51704  0.88285  1.0000
  C   C22       1.0  0.32222  0.98296  0.61714  1.0000
  C   C23       1.0  0.17778  0.48296  0.11715  1.0000
  C   C24       1.0  0.67778  0.01704  0.38286  1.0000
  N   N1        1.0  0.01031  0.50600  0.84122  1.0000
  N   N2        1.0  0.51031  0.99400  0.65878  1.0000
  N   N3        1.0  0.98969  0.49400  0.15878  1.0000
  N   N4        1.0  0.48969  0.00600  0.34122  1.0000
  O   O1        1.0  0.31073  0.44726  0.93254  1.0000
  O   O2        1.0  0.81072  0.05273  0.56745  1.0000
  O   O3        1.0  0.68927  0.55273  0.06746  1.0000
  O   O4        1.0  0.18928  0.94727  0.43255  1.0000
  O   O5        1.0  0.32698  0.11920  0.90970  1.0000
  O   O6        1.0  0.82697  0.38079  0.59029  1.0000
  O   O7        1.0  0.67303  0.88079  0.09030  1.0000
  O   O8        1.0  0.17302  0.61921  0.40971  1.0000
  O   O9        1.0  0.05602  0.88707  0.80851  1.0000
  O   O10       1.0  0.55601  0.61294  0.69149  1.0000
  O   O11       1.0  0.94398  0.11292  0.19149  1.0000
  O   O12       1.0  0.44399  0.38706  0.30850  1.0000
  O   O13       1.0  0.91210  0.84231  0.70505  1.0000
  O   O14       1.0  0.41208  0.65768  0.79495  1.0000
  O   O15       1.0  0.08790  0.15769  0.29495  1.0000
  O   O16       1.0  0.58791  0.34232  0.20505  1.0000
  O   O17       1.0  0.93048  0.81998  0.94093  1.0000
  O   O18       1.0  0.43047  0.68003  0.55906  1.0000
  O   O19       1.0  0.06952  0.18002  0.05907  1.0000
  O   O20       1.0  0.56952  0.31997  0.44094  1.0000
  O   O21       1.0  0.60111  0.78538  0.91850  1.0000
  O   O22       1.0  0.10110  0.71463  0.58150  1.0000
  O   O23       1.0  0.39890  0.21462  0.08150  1.0000
  O   O24       1.0  0.89890  0.28537  0.41850  1.0000
  O   O25       1.0  0.28433  0.83354  0.01857  1.0000
  O   O26       1.0  0.78432  0.66646  0.48143  1.0000
  O   O27       1.0  0.71567  0.16646  0.98143  1.0000
  O   O28       1.0  0.21568  0.33354  0.51857  1.0000
