data_image0
_chemical_formula_structural       Cd2H30C38N4O12
_chemical_formula_sum              "Cd2 H30 C38 N4 O12"
_cell_length_a       7.51723
_cell_length_b       10.4906
_cell_length_c       12.4659
_cell_angle_alpha    101.858
_cell_angle_beta     99.3572
_cell_angle_gamma    111.588

_space_group_name_H-M_alt    "P 1"
_space_group_IT_number       1

loop_
  _space_group_symop_operation_xyz
  'x, y, z'

loop_
  _atom_site_type_symbol
  _atom_site_label
  _atom_site_symmetry_multiplicity
  _atom_site_fract_x
  _atom_site_fract_y
  _atom_site_fract_z
  _atom_site_occupancy
  Cd  Cd1       1.0  0.58892  0.13143  0.34205  1.0000
  Cd  Cd2       1.0  0.41108  0.86857  0.65795  1.0000
  H   H1        1.0  0.00034  0.07926  0.32968  1.0000
  H   H2        1.0  0.99970  0.92079  0.67033  1.0000
  H   H3        1.0  0.28931  0.28581  0.05104  1.0000
  H   H4        1.0  0.71072  0.71421  0.94896  1.0000
  H   H5        1.0  0.29837  0.69888  0.04443  1.0000
  H   H6        1.0  0.70165  0.30112  0.95558  1.0000
  H   H7        1.0  0.53382  0.63725  0.35788  1.0000
  H   H8        1.0  0.46617  0.36274  0.64213  1.0000
  H   H9        1.0  0.74514  0.07341  0.93948  1.0000
  H   H10       1.0  0.25477  0.92649  0.06050  1.0000
  H   H11       1.0  0.61413  0.15185  0.09765  1.0000
  H   H12       1.0  0.38580  0.84809  0.90234  1.0000
  H   H13       1.0  0.28568  0.59923  0.85884  1.0000
  H   H14       1.0  0.71437  0.40082  0.14117  1.0000
  H   H15       1.0  0.05432  0.55684  0.89487  1.0000
  H   H16       1.0  0.94569  0.44318  0.10512  1.0000
  H   H17       1.0  0.88292  0.10055  0.54157  1.0000
  H   H18       1.0  0.11708  0.89945  0.45843  1.0000
  H   H19       1.0  0.08315  0.23273  0.74161  1.0000
  H   H20       1.0  0.91688  0.76730  0.25839  1.0000
  H   H21       1.0  0.14360  0.99231  0.18315  1.0000
  H   H22       1.0  0.85647  0.00773  0.81686  1.0000
  H   H23       1.0  0.96080  0.59309  0.69801  1.0000
  H   H24       1.0  0.03921  0.40693  0.30200  1.0000
  H   H25       1.0  0.75976  0.44634  0.50316  1.0000
  H   H26       1.0  0.24025  0.55367  0.49686  1.0000
  H   H27       1.0  0.36974  0.14112  0.51308  1.0000
  H   H28       1.0  0.63028  0.85892  0.48693  1.0000
  H   H29       1.0  0.36359  0.23844  0.42662  1.0000
  H   H30       1.0  0.63640  0.76155  0.57339  1.0000
  C   C1        1.0  0.94572  0.07533  0.24199  1.0000
  C   C2        1.0  0.05426  0.92466  0.75799  1.0000
  C   C3        1.0  0.32595  0.39702  0.09473  1.0000
  C   C4        1.0  0.67408  0.60299  0.90527  1.0000
  C   C5        1.0  0.42506  0.68384  0.20567  1.0000
  C   C6        1.0  0.57495  0.31617  0.79433  1.0000
  C   C7        1.0  0.33167  0.62821  0.08882  1.0000
  C   C8        1.0  0.66835  0.37182  0.91118  1.0000
  C   C9        1.0  0.95843  0.02443  0.04592  1.0000
  C   C10       1.0  0.04152  0.97552  0.95407  1.0000
  C   C11       1.0  0.44512  0.35691  0.28053  1.0000
  C   C12       1.0  0.55485  0.64308  0.71945  1.0000
  C   C13       1.0  0.46562  0.59620  0.26692  1.0000
  C   C14       1.0  0.53437  0.40382  0.73308  1.0000
  C   C15       1.0  0.41307  0.45215  0.21150  1.0000
  C   C16       1.0  0.58693  0.54786  0.78850  1.0000
  C   C17       1.0  0.80713  0.07121  0.02403  1.0000
  C   C18       1.0  0.19279  0.92869  0.97597  1.0000
  C   C19       1.0  0.03894  0.42424  0.73644  1.0000
  C   C20       1.0  0.96109  0.57578  0.26357  1.0000
  C   C21       1.0  0.47362  0.83677  0.26368  1.0000
  C   C22       1.0  0.52638  0.16322  0.73632  1.0000
  C   C23       1.0  0.28328  0.48504  0.03335  1.0000
  C   C24       1.0  0.71675  0.51499  0.96666  1.0000
  C   C25       1.0  0.73317  0.11665  0.11228  1.0000
  C   C26       1.0  0.26679  0.88328  0.88772  1.0000
  C   C27       1.0  0.14760  0.51029  0.85702  1.0000
  C   C28       1.0  0.85245  0.48973  0.14299  1.0000
  C   C29       1.0  0.90631  0.21078  0.57897  1.0000
  C   C30       1.0  0.09371  0.78923  0.42103  1.0000
  C   C31       1.0  0.01756  0.28461  0.69055  1.0000
  C   C32       1.0  0.98246  0.71541  0.30945  1.0000
  C   C33       1.0  0.02707  0.02682  0.15845  1.0000
  C   C34       1.0  0.97288  0.97315  0.84152  1.0000
  C   C35       1.0  0.95071  0.48511  0.66654  1.0000
  C   C36       1.0  0.04930  0.51490  0.33346  1.0000
  C   C37       1.0  0.83975  0.40415  0.55670  1.0000
  C   C38       1.0  0.16026  0.59585  0.44331  1.0000
  N   N1        1.0  0.81689  0.26844  0.51312  1.0000
  N   N2        1.0  0.18313  0.73156  0.48689  1.0000
  N   N3        1.0  0.80071  0.11972  0.22009  1.0000
  N   N4        1.0  0.19930  0.88026  0.77991  1.0000
  O   O1        1.0  0.59640  0.89901  0.36205  1.0000
  O   O2        1.0  0.40359  0.10099  0.63795  1.0000
  O   O3        1.0  0.42021  0.38033  0.37933  1.0000
  O   O4        1.0  0.57974  0.61963  0.62065  1.0000
  O   O5        1.0  0.19171  0.42129  0.91994  1.0000
  O   O6        1.0  0.80829  0.57872  0.08005  1.0000
  O   O7        1.0  0.49502  0.25884  0.23334  1.0000
  O   O8        1.0  0.50495  0.74114  0.76664  1.0000
  O   O9        1.0  0.33682  0.13869  0.43175  1.0000
  O   O10       1.0  0.66319  0.86130  0.56826  1.0000
  O   O11       1.0  0.39343  0.90279  0.21176  1.0000
  O   O12       1.0  0.60656  0.09722  0.78825  1.0000
