data_image0
_chemical_formula_structural       Cd2H22C28N2O12
_chemical_formula_sum              "Cd2 H22 C28 N2 O12"
_cell_length_a       6.88778
_cell_length_b       9.79687
_cell_length_c       12.119
_cell_angle_alpha    77.2844
_cell_angle_beta     84.2561
_cell_angle_gamma    71.4188

_space_group_name_H-M_alt    "P 1"
_space_group_IT_number       1

loop_
  _space_group_symop_operation_xyz
  'x, y, z'

loop_
  _atom_site_type_symbol
  _atom_site_label
  _atom_site_symmetry_multiplicity
  _atom_site_fract_x
  _atom_site_fract_y
  _atom_site_fract_z
  _atom_site_occupancy
  Cd  Cd1       1.0  0.49059  0.81939  0.95295  1.0000
  Cd  Cd2       1.0  0.50941  0.18061  0.04705  1.0000
  H   H1        1.0  0.13994  0.75383  0.86476  1.0000
  H   H2        1.0  0.86006  0.24618  0.13524  1.0000
  H   H3        1.0  0.25909  0.61265  0.95243  1.0000
  H   H4        1.0  0.74090  0.38735  0.04757  1.0000
  H   H5        1.0  0.01536  0.30839  0.94474  1.0000
  H   H6        1.0  0.98464  0.69161  0.05527  1.0000
  H   H7        1.0  0.97056  0.67858  0.67141  1.0000
  H   H8        1.0  0.02944  0.32143  0.32860  1.0000
  H   H9        1.0  0.52186  0.53614  0.15219  1.0000
  H   H10       1.0  0.47814  0.46386  0.84781  1.0000
  H   H11       1.0  0.40514  0.46955  0.35217  1.0000
  H   H12       1.0  0.59486  0.53044  0.64783  1.0000
  H   H13       1.0  0.33330  0.24085  0.62862  1.0000
  H   H14       1.0  0.66668  0.75916  0.37138  1.0000
  H   H15       1.0  0.22189  0.72101  0.53494  1.0000
  H   H16       1.0  0.77811  0.27899  0.46506  1.0000
  H   H17       1.0  0.99258  0.71038  0.48569  1.0000
  H   H18       1.0  0.00742  0.28963  0.51432  1.0000
  H   H19       1.0  0.21308  0.97833  0.13814  1.0000
  H   H20       1.0  0.78692  0.02166  0.86187  1.0000
  H   H21       1.0  0.08720  0.93036  0.33837  1.0000
  H   H22       1.0  0.91280  0.06963  0.66164  1.0000
  C   C1        1.0  0.82412  0.60380  0.87996  1.0000
  C   C2        1.0  0.17589  0.39619  0.12004  1.0000
  C   C3        1.0  0.97629  0.50351  0.81350  1.0000
  C   C4        1.0  0.02370  0.49650  0.18649  1.0000
  C   C5        1.0  0.05390  0.35385  0.85841  1.0000
  C   C6        1.0  0.94610  0.64616  0.14159  1.0000
  C   C7        1.0  0.03250  0.56087  0.70281  1.0000
  C   C8        1.0  0.96751  0.43913  0.29719  1.0000
  C   C9        1.0  0.42432  0.62046  0.19602  1.0000
  C   C10       1.0  0.57568  0.37954  0.80398  1.0000
  C   C11       1.0  0.36020  0.58373  0.30813  1.0000
  C   C12       1.0  0.63980  0.41627  0.69187  1.0000
  C   C13       1.0  0.23849  0.69467  0.36252  1.0000
  C   C14       1.0  0.76151  0.30533  0.63748  1.0000
  C   C15       1.0  0.18303  0.25974  0.79184  1.0000
  C   C16       1.0  0.81698  0.74028  0.20813  1.0000
  C   C17       1.0  0.23241  0.31473  0.68006  1.0000
  C   C18       1.0  0.76759  0.68528  0.31992  1.0000
  C   C19       1.0  0.15974  0.46589  0.63629  1.0000
  C   C20       1.0  0.84026  0.53411  0.36371  1.0000
  C   C21       1.0  0.16135  0.66503  0.48287  1.0000
  C   C22       1.0  0.83865  0.33496  0.51714  1.0000
  C   C23       1.0  0.27712  0.10117  0.84326  1.0000
  C   C24       1.0  0.72288  0.89882  0.15673  1.0000
  C   C25       1.0  0.25337  0.86732  0.18903  1.0000
  C   C26       1.0  0.74663  0.13268  0.81097  1.0000
  C   C27       1.0  0.18520  0.83943  0.30089  1.0000
  C   C28       1.0  0.81480  0.16057  0.69910  1.0000
  N   N1        1.0  0.37162  0.75941  0.13711  1.0000
  N   N2        1.0  0.62837  0.24059  0.86291  1.0000
  O   O1        1.0  0.78864  0.74282  0.84625  1.0000
  O   O2        1.0  0.21139  0.25717  0.15376  1.0000
  O   O3        1.0  0.22270  0.51095  0.52710  1.0000
  O   O4        1.0  0.77730  0.48904  0.47292  1.0000
  O   O5        1.0  0.72785  0.55036  0.96510  1.0000
  O   O6        1.0  0.27214  0.44964  0.03490  1.0000
  O   O7        1.0  0.27518  0.69949  0.89486  1.0000
  O   O8        1.0  0.72482  0.30051  0.10515  1.0000
  O   O9        1.0  0.33978  0.00575  0.78215  1.0000
  O   O10       1.0  0.66023  0.99426  0.21782  1.0000
  O   O11       1.0  0.29623  0.06854  0.95189  1.0000
  O   O12       1.0  0.70377  0.93145  0.04810  1.0000
