data_image0
_chemical_formula_structural       Li8H28C16O24
_chemical_formula_sum              "Li8 H28 C16 O24"
_cell_length_a       8.17377
_cell_length_b       7.79996
_cell_length_c       11.0497
_cell_angle_alpha    110.667
_cell_angle_beta     95.587
_cell_angle_gamma    89.9968

_space_group_name_H-M_alt    "P 1"
_space_group_IT_number       1

loop_
  _space_group_symop_operation_xyz
  'x, y, z'

loop_
  _atom_site_type_symbol
  _atom_site_label
  _atom_site_symmetry_multiplicity
  _atom_site_fract_x
  _atom_site_fract_y
  _atom_site_fract_z
  _atom_site_occupancy
  Li  Li1       1.0  0.05612  0.52356  0.38550  1.0000
  Li  Li2       1.0  0.44403  0.13782  0.61450  1.0000
  Li  Li3       1.0  0.94388  0.47643  0.61450  1.0000
  Li  Li4       1.0  0.55596  0.86219  0.38550  1.0000
  Li  Li5       1.0  0.93894  0.27786  0.13501  1.0000
  Li  Li6       1.0  0.56105  0.14245  0.86481  1.0000
  Li  Li7       1.0  0.06106  0.72214  0.86498  1.0000
  Li  Li8       1.0  0.43894  0.85754  0.13518  1.0000
  H   H1        1.0  0.76951  0.58407  0.24145  1.0000
  H   H2        1.0  0.73047  0.34220  0.75838  1.0000
  H   H3        1.0  0.23049  0.41593  0.75854  1.0000
  H   H4        1.0  0.26954  0.65780  0.24162  1.0000
  H   H5        1.0  0.87638  0.62176  0.13844  1.0000
  H   H6        1.0  0.62362  0.48293  0.86139  1.0000
  H   H7        1.0  0.12362  0.37824  0.86156  1.0000
  H   H8        1.0  0.37638  0.51707  0.13861  1.0000
  H   H9        1.0  0.86427  0.30945  0.92572  1.0000
  H   H10       1.0  0.63562  0.38383  0.07402  1.0000
  H   H11       1.0  0.13573  0.69054  0.07428  1.0000
  H   H12       1.0  0.36437  0.61617  0.92598  1.0000
  H   H13       1.0  0.89508  0.10703  0.90160  1.0000
  H   H14       1.0  0.60496  0.20573  0.09844  1.0000
  H   H15       1.0  0.10491  0.89296  0.09840  1.0000
  H   H16       1.0  0.39503  0.79427  0.90156  1.0000
  H   H17       1.0  0.51058  0.30992  0.28680  1.0000
  H   H18       1.0  0.98908  0.02151  0.71276  1.0000
  H   H19       1.0  0.48943  0.69008  0.71319  1.0000
  H   H20       1.0  0.01090  0.97849  0.28724  1.0000
  H   H21       1.0  0.46405  0.18004  0.38096  1.0000
  H   H22       1.0  0.03654  0.79811  0.61833  1.0000
  H   H23       1.0  0.53595  0.81995  0.61905  1.0000
  H   H24       1.0  0.96345  0.20191  0.38166  1.0000
  H   H25       1.0  0.36407  0.57614  0.42990  1.0000
  H   H26       1.0  0.13570  0.14635  0.57043  1.0000
  H   H27       1.0  0.63592  0.42387  0.57009  1.0000
  H   H28       1.0  0.86429  0.85366  0.42957  1.0000
  C   C1        1.0  0.26477  0.21420  0.25371  1.0000
  C   C2        1.0  0.23531  0.95999  0.74622  1.0000
  C   C3        1.0  0.73522  0.78579  0.74629  1.0000
  C   C4        1.0  0.76469  0.04002  0.25379  1.0000
  C   C5        1.0  0.41904  0.28985  0.34779  1.0000
  C   C6        1.0  0.08112  0.94127  0.65195  1.0000
  C   C7        1.0  0.58097  0.71015  0.65221  1.0000
  C   C8        1.0  0.91887  0.05874  0.34806  1.0000
  C   C9        1.0  0.41302  0.46903  0.46474  1.0000
  C   C10       1.0  0.08698  0.00430  0.53527  1.0000
  C   C11       1.0  0.58699  0.53099  0.53527  1.0000
  C   C12       1.0  0.91302  0.99570  0.46474  1.0000
  C   C13       1.0  0.29807  0.44472  0.55839  1.0000
  C   C14       1.0  0.20203  0.88681  0.44154  1.0000
  C   C15       1.0  0.70190  0.55527  0.44159  1.0000
  C   C16       1.0  0.79798  0.11318  0.55846  1.0000
  O   O1        1.0  0.14255  0.31572  0.25274  1.0000
  O   O2        1.0  0.35755  0.06238  0.74710  1.0000
  O   O3        1.0  0.85746  0.68430  0.74727  1.0000
  O   O4        1.0  0.64245  0.93763  0.25289  1.0000
  O   O5        1.0  0.26930  0.04879  0.17660  1.0000
  O   O6        1.0  0.23090  0.87193  0.82348  1.0000
  O   O7        1.0  0.73074  0.95118  0.82340  1.0000
  O   O8        1.0  0.76911  0.12806  0.17653  1.0000
  O   O9        1.0  0.15212  0.49788  0.55018  1.0000
  O   O10       1.0  0.34776  0.94864  0.44947  1.0000
  O   O11       1.0  0.84789  0.50214  0.44983  1.0000
  O   O12       1.0  0.65224  0.05135  0.55052  1.0000
  O   O13       1.0  0.35128  0.37035  0.63977  1.0000
  O   O14       1.0  0.14912  0.73081  0.36036  1.0000
  O   O15       1.0  0.64872  0.62965  0.36023  1.0000
  O   O16       1.0  0.85089  0.26917  0.63963  1.0000
  O   O17       1.0  0.83083  0.52418  0.16312  1.0000
  O   O18       1.0  0.66926  0.36071  0.83680  1.0000
  O   O19       1.0  0.16917  0.47582  0.83688  1.0000
  O   O20       1.0  0.33074  0.63928  0.16320  1.0000
  O   O21       1.0  0.94879  0.23136  0.94746  1.0000
  O   O22       1.0  0.55114  0.28403  0.05246  1.0000
  O   O23       1.0  0.05120  0.76863  0.05254  1.0000
  O   O24       1.0  0.44884  0.71597  0.94755  1.0000
