data_image0
_chemical_formula_structural       K4H28C16O24
_chemical_formula_sum              "K4 H28 C16 O24"
_cell_length_a       6.49923
_cell_length_b       8.39457
_cell_length_c       13.6888
_cell_angle_alpha    89.9998
_cell_angle_beta     89.9999
_cell_angle_gamma    104.458

_space_group_name_H-M_alt    "P 1"
_space_group_IT_number       1

loop_
  _space_group_symop_operation_xyz
  'x, y, z'

loop_
  _atom_site_type_symbol
  _atom_site_label
  _atom_site_symmetry_multiplicity
  _atom_site_fract_x
  _atom_site_fract_y
  _atom_site_fract_z
  _atom_site_occupancy
  K   K1        1.0  0.11254  0.96323  0.64844  1.0000
  K   K2        1.0  0.38746  0.03676  0.14844  1.0000
  K   K3        1.0  0.88747  0.03676  0.35156  1.0000
  K   K4        1.0  0.61253  0.96324  0.85156  1.0000
  H   H1        1.0  0.95891  0.58580  0.72970  1.0000
  H   H2        1.0  0.54109  0.41420  0.22970  1.0000
  H   H3        1.0  0.04109  0.41420  0.27030  1.0000
  H   H4        1.0  0.45891  0.58580  0.77030  1.0000
  H   H5        1.0  0.06793  0.24862  0.80726  1.0000
  H   H6        1.0  0.43206  0.75138  0.30726  1.0000
  H   H7        1.0  0.93207  0.75138  0.19274  1.0000
  H   H8        1.0  0.56794  0.24862  0.69274  1.0000
  H   H9        1.0  0.91511  0.26048  0.72148  1.0000
  H   H10       1.0  0.58489  0.73952  0.22148  1.0000
  H   H11       1.0  0.08489  0.73952  0.27851  1.0000
  H   H12       1.0  0.41511  0.26048  0.77852  1.0000
  H   H13       1.0  0.34556  0.03142  0.41928  1.0000
  H   H14       1.0  0.15444  0.96858  0.91928  1.0000
  H   H15       1.0  0.65444  0.96857  0.58072  1.0000
  H   H16       1.0  0.84555  0.03142  0.08072  1.0000
  H   H17       1.0  0.22842  0.84651  0.43847  1.0000
  H   H18       1.0  0.27157  0.15349  0.93847  1.0000
  H   H19       1.0  0.77157  0.15348  0.56153  1.0000
  H   H20       1.0  0.72843  0.84652  0.06153  1.0000
  H   H21       1.0  0.02442  0.73426  0.01651  1.0000
  H   H22       1.0  0.47558  0.26574  0.51651  1.0000
  H   H23       1.0  0.97558  0.26575  0.98349  1.0000
  H   H24       1.0  0.52442  0.73425  0.48349  1.0000
  H   H25       1.0  0.27760  0.58150  0.05401  1.0000
  H   H26       1.0  0.22240  0.41850  0.55401  1.0000
  H   H27       1.0  0.72240  0.41851  0.94599  1.0000
  H   H28       1.0  0.77760  0.58150  0.44598  1.0000
  C   C1        1.0  0.99106  0.67346  0.86516  1.0000
  C   C2        1.0  0.50895  0.32654  0.36516  1.0000
  C   C3        1.0  0.00894  0.32655  0.13484  1.0000
  C   C4        1.0  0.49106  0.67345  0.63483  1.0000
  C   C5        1.0  0.00685  0.62536  0.97036  1.0000
  C   C6        1.0  0.49316  0.37464  0.47036  1.0000
  C   C7        1.0  0.99315  0.37465  0.02964  1.0000
  C   C8        1.0  0.50685  0.62535  0.52964  1.0000
  C   C9        1.0  0.17234  0.52308  0.99443  1.0000
  C   C10       1.0  0.32765  0.47692  0.49443  1.0000
  C   C11       1.0  0.82765  0.47693  0.00557  1.0000
  C   C12       1.0  0.67235  0.52308  0.50557  1.0000
  C   C13       1.0  0.31035  0.49451  0.91017  1.0000
  C   C14       1.0  0.18966  0.50549  0.41017  1.0000
  C   C15       1.0  0.68965  0.50550  0.08983  1.0000
  C   C16       1.0  0.81035  0.49451  0.58983  1.0000
  O   O1        1.0  0.99991  0.81742  0.83899  1.0000
  O   O2        1.0  0.50009  0.18258  0.33899  1.0000
  O   O3        1.0  0.00008  0.18259  0.16101  1.0000
  O   O4        1.0  0.49991  0.81742  0.66101  1.0000
  O   O5        1.0  0.96537  0.54940  0.80414  1.0000
  O   O6        1.0  0.53463  0.45060  0.30414  1.0000
  O   O7        1.0  0.03463  0.45061  0.19586  1.0000
  O   O8        1.0  0.46537  0.54939  0.69586  1.0000
  O   O9        1.0  0.42784  0.62381  0.87110  1.0000
  O   O10       1.0  0.07215  0.37619  0.37110  1.0000
  O   O11       1.0  0.57215  0.37619  0.12890  1.0000
  O   O12       1.0  0.92785  0.62381  0.62890  1.0000
  O   O13       1.0  0.30299  0.34911  0.88194  1.0000
  O   O14       1.0  0.19701  0.65089  0.38194  1.0000
  O   O15       1.0  0.69700  0.65089  0.11806  1.0000
  O   O16       1.0  0.80300  0.34911  0.61806  1.0000
  O   O17       1.0  0.95513  0.18120  0.76633  1.0000
  O   O18       1.0  0.54487  0.81880  0.26633  1.0000
  O   O19       1.0  0.04488  0.81880  0.23367  1.0000
  O   O20       1.0  0.45513  0.18120  0.73367  1.0000
  O   O21       1.0  0.23035  0.95997  0.45810  1.0000
  O   O22       1.0  0.26965  0.04002  0.95810  1.0000
  O   O23       1.0  0.76964  0.04001  0.54190  1.0000
  O   O24       1.0  0.73035  0.95998  0.04190  1.0000
