data_image0
_chemical_formula_structural       Na4H28C32O32
_chemical_formula_sum              "Na4 H28 C32 O32"
_cell_length_a       5.35038
_cell_length_b       12.4599
_cell_length_c       13.6437
_cell_angle_alpha    89.9995
_cell_angle_beta     89.9994
_cell_angle_gamma    91.3242

_space_group_name_H-M_alt    "P 1"
_space_group_IT_number       1

loop_
  _space_group_symop_operation_xyz
  'x, y, z'

loop_
  _atom_site_type_symbol
  _atom_site_label
  _atom_site_symmetry_multiplicity
  _atom_site_fract_x
  _atom_site_fract_y
  _atom_site_fract_z
  _atom_site_occupancy
  Na  Na1       1.0  0.73488  0.05371  0.27412  1.0000
  Na  Na2       1.0  0.76511  0.44628  0.77411  1.0000
  Na  Na3       1.0  0.26513  0.94629  0.72589  1.0000
  Na  Na4       1.0  0.23488  0.55371  0.22589  1.0000
  H   H1        1.0  0.21246  0.96410  0.33054  1.0000
  H   H2        1.0  0.28754  0.53591  0.83052  1.0000
  H   H3        1.0  0.78755  0.03591  0.66946  1.0000
  H   H4        1.0  0.71247  0.46409  0.16946  1.0000
  H   H5        1.0  0.67456  0.23280  0.67471  1.0000
  H   H6        1.0  0.82543  0.26720  0.17471  1.0000
  H   H7        1.0  0.32543  0.76720  0.32528  1.0000
  H   H8        1.0  0.17457  0.73280  0.82529  1.0000
  H   H9        1.0  0.81495  0.54037  0.35963  1.0000
  H   H10       1.0  0.68506  0.95964  0.85963  1.0000
  H   H11       1.0  0.18504  0.45963  0.64036  1.0000
  H   H12       1.0  0.31498  0.04038  0.14037  1.0000
  H   H13       1.0  0.13003  0.26251  0.30297  1.0000
  H   H14       1.0  0.36996  0.23748  0.80297  1.0000
  H   H15       1.0  0.86996  0.73748  0.69703  1.0000
  H   H16       1.0  0.63003  0.76252  0.19703  1.0000
  H   H17       1.0  0.55004  0.18223  0.43368  1.0000
  H   H18       1.0  0.94993  0.31776  0.93368  1.0000
  H   H19       1.0  0.44994  0.81777  0.56632  1.0000
  H   H20       1.0  0.05005  0.68224  0.06633  1.0000
  H   H21       1.0  0.05751  0.24853  0.52761  1.0000
  H   H22       1.0  0.44248  0.25148  0.02760  1.0000
  H   H23       1.0  0.94247  0.75147  0.47239  1.0000
  H   H24       1.0  0.55753  0.74854  0.97240  1.0000
  H   H25       1.0  0.37642  0.42864  0.43695  1.0000
  H   H26       1.0  0.12359  0.07135  0.93696  1.0000
  H   H27       1.0  0.62355  0.57136  0.56305  1.0000
  H   H28       1.0  0.87646  0.92864  0.06305  1.0000
  C   C1        1.0  0.29717  0.28451  0.34611  1.0000
  C   C2        1.0  0.20284  0.21549  0.84612  1.0000
  C   C3        1.0  0.70283  0.71549  0.65389  1.0000
  C   C4        1.0  0.79716  0.78451  0.15389  1.0000
  C   C5        1.0  0.35050  0.19735  0.42535  1.0000
  C   C6        1.0  0.14947  0.30264  0.92535  1.0000
  C   C7        1.0  0.64947  0.80264  0.57465  1.0000
  C   C8        1.0  0.85052  0.69736  0.07466  1.0000
  C   C9        1.0  0.24699  0.27376  0.50393  1.0000
  C   C10       1.0  0.25301  0.22623  0.00392  1.0000
  C   C11       1.0  0.75299  0.72624  0.49607  1.0000
  C   C12       1.0  0.74701  0.77376  0.99608  1.0000
  C   C13       1.0  0.23061  0.36612  0.42848  1.0000
  C   C14       1.0  0.26940  0.13388  0.92849  1.0000
  C   C15       1.0  0.76938  0.63388  0.57152  1.0000
  C   C16       1.0  0.73064  0.86612  0.07152  1.0000
  C   C17       1.0  0.50187  0.31338  0.27359  1.0000
  C   C18       1.0  0.99808  0.18661  0.77358  1.0000
  C   C19       1.0  0.49810  0.68662  0.72642  1.0000
  C   C20       1.0  0.00191  0.81339  0.22642  1.0000
  C   C21       1.0  0.20075  0.09697  0.40359  1.0000
  C   C22       1.0  0.29921  0.40304  0.90358  1.0000
  C   C23       1.0  0.79923  0.90303  0.59641  1.0000
  C   C24       1.0  0.70078  0.59697  0.09642  1.0000
  C   C25       1.0  0.40703  0.29278  0.59324  1.0000
  C   C26       1.0  0.09296  0.20722  0.09323  1.0000
  C   C27       1.0  0.59296  0.70722  0.40677  1.0000
  C   C28       1.0  0.90704  0.79278  0.90676  1.0000
  C   C29       1.0  0.97856  0.41639  0.41937  1.0000
  C   C30       1.0  0.52146  0.08361  0.91936  1.0000
  C   C31       1.0  0.02143  0.58360  0.58063  1.0000
  C   C32       1.0  0.47859  0.91641  0.08063  1.0000
  O   O1        1.0  0.65860  0.24062  0.25295  1.0000
  O   O2        1.0  0.84143  0.25937  0.75295  1.0000
  O   O3        1.0  0.34141  0.75937  0.74705  1.0000
  O   O4        1.0  0.15856  0.74063  0.24705  1.0000
  O   O5        1.0  0.50027  0.40563  0.23490  1.0000
  O   O6        1.0  0.99974  0.09437  0.73490  1.0000
  O   O7        1.0  0.49974  0.59437  0.76511  1.0000
  O   O8        1.0  0.00027  0.90562  0.26510  1.0000
  O   O9        1.0  0.33328  0.02116  0.35923  1.0000
  O   O10       1.0  0.16671  0.47883  0.85922  1.0000
  O   O11       1.0  0.66672  0.97884  0.64077  1.0000
  O   O12       1.0  0.83329  0.52116  0.14077  1.0000
  O   O13       1.0  0.97262  0.08968  0.41581  1.0000
  O   O14       1.0  0.52735  0.41032  0.91580  1.0000
  O   O15       1.0  0.02737  0.91031  0.58420  1.0000
  O   O16       1.0  0.47263  0.58968  0.08420  1.0000
  O   O17       1.0  0.39648  0.37583  0.64492  1.0000
  O   O18       1.0  0.10354  0.12418  0.14493  1.0000
  O   O19       1.0  0.60351  0.62417  0.35508  1.0000
  O   O20       1.0  0.89647  0.87582  0.85507  1.0000
  O   O21       1.0  0.55440  0.21389  0.61403  1.0000
  O   O22       1.0  0.94559  0.28611  0.11403  1.0000
  O   O23       1.0  0.44560  0.78610  0.38596  1.0000
  O   O24       1.0  0.05441  0.71390  0.88597  1.0000
  O   O25       1.0  0.97795  0.49810  0.35544  1.0000
  O   O26       1.0  0.52206  0.00192  0.85544  1.0000
  O   O27       1.0  0.02203  0.50190  0.64456  1.0000
  O   O28       1.0  0.47798  0.99810  0.14456  1.0000
  O   O29       1.0  0.79235  0.38660  0.46531  1.0000
  O   O30       1.0  0.70765  0.11340  0.96531  1.0000
  O   O31       1.0  0.20763  0.61339  0.53468  1.0000
  O   O32       1.0  0.29237  0.88663  0.03468  1.0000
