data_image0
_chemical_formula_structural       Cu2Hg2H12C20N8Cl4O8
_chemical_formula_sum              "Cu2 Hg2 H12 C20 N8 Cl4 O8"
_cell_length_a       7.22937
_cell_length_b       9.62353
_cell_length_c       11.0988
_cell_angle_alpha    79.5436
_cell_angle_beta     71.0114
_cell_angle_gamma    67.9737

_space_group_name_H-M_alt    "P 1"
_space_group_IT_number       1

loop_
  _space_group_symop_operation_xyz
  'x, y, z'

loop_
  _atom_site_type_symbol
  _atom_site_label
  _atom_site_symmetry_multiplicity
  _atom_site_fract_x
  _atom_site_fract_y
  _atom_site_fract_z
  _atom_site_occupancy
  Cu  Cu1       1.0  0.50000  0.00000  0.50000  1.0000
  Cu  Cu2       1.0  1.00000  0.50000  1.00000  1.0000
  Hg  Hg1       1.0  0.00000  1.00000  1.00000  1.0000
  Hg  Hg2       1.0  0.00000  0.50000  0.50000  1.0000
  H   H1        1.0  0.63442  0.89637  0.92074  1.0000
  H   H2        1.0  0.45154  0.60377  0.57920  1.0000
  H   H3        1.0  0.36558  0.10363  0.07926  1.0000
  H   H4        1.0  0.54846  0.39623  0.42081  1.0000
  H   H5        1.0  0.98216  0.14534  0.67100  1.0000
  H   H6        1.0  0.79804  0.35485  0.82910  1.0000
  H   H7        1.0  0.01786  0.85466  0.32899  1.0000
  H   H8        1.0  0.20196  0.64514  0.17090  1.0000
  H   H9        1.0  0.82031  0.14854  0.49887  1.0000
  H   H10       1.0  0.46733  0.35134  0.00107  1.0000
  H   H11       1.0  0.17969  0.85146  0.50113  1.0000
  H   H12       1.0  0.53266  0.64866  0.99893  1.0000
  C   C1        1.0  0.59210  0.94921  0.73147  1.0000
  C   C2        1.0  0.27270  0.55100  0.76844  1.0000
  C   C3        1.0  0.40790  0.05079  0.26854  1.0000
  C   C4        1.0  0.72730  0.44900  0.23156  1.0000
  C   C5        1.0  0.67741  0.95227  0.82661  1.0000
  C   C6        1.0  0.45617  0.54790  0.67333  1.0000
  C   C7        1.0  0.32259  0.04773  0.17339  1.0000
  C   C8        1.0  0.54383  0.45210  0.32667  1.0000
  C   C9        1.0  0.86827  0.08961  0.68872  1.0000
  C   C10       1.0  0.64622  0.41051  0.81128  1.0000
  C   C11       1.0  0.13174  0.91039  0.31128  1.0000
  C   C12       1.0  0.35378  0.58949  0.18872  1.0000
  C   C13       1.0  0.78214  0.09013  0.59263  1.0000
  C   C14       1.0  0.46457  0.40986  0.90731  1.0000
  C   C15       1.0  0.21786  0.90987  0.40737  1.0000
  C   C16       1.0  0.53543  0.59013  0.09269  1.0000
  C   C17       1.0  0.43257  0.87642  0.74985  1.0000
  C   C18       1.0  0.05889  0.62405  0.75011  1.0000
  C   C19       1.0  0.56742  0.12359  0.25016  1.0000
  C   C20       1.0  0.94111  0.37595  0.24989  1.0000
  N   N1        1.0  0.64589  0.01836  0.61563  1.0000
  N   N2        1.0  0.27967  0.48177  0.88428  1.0000
  N   N3        1.0  0.35411  0.98164  0.38437  1.0000
  N   N4        1.0  0.72033  0.51824  0.11572  1.0000
  N   N5        1.0  0.81541  0.02176  0.80502  1.0000
  N   N6        1.0  0.64194  0.47839  0.69497  1.0000
  N   N7        1.0  0.18459  0.97823  0.19498  1.0000
  N   N8        1.0  0.35805  0.52161  0.30503  1.0000
  Cl  Cl1       1.0  0.23232  0.29909  0.59090  1.0000
  Cl  Cl2       1.0  0.12219  0.20107  0.90896  1.0000
  Cl  Cl3       1.0  0.76768  0.70091  0.40911  1.0000
  Cl  Cl4       1.0  0.87781  0.79893  0.09104  1.0000
  O   O1        1.0  0.36415  0.89324  0.65200  1.0000
  O   O2        1.0  0.90951  0.60716  0.84793  1.0000
  O   O3        1.0  0.63585  0.10676  0.34800  1.0000
  O   O4        1.0  0.09049  0.39284  0.15207  1.0000
  O   O5        1.0  0.37390  0.80843  0.85401  1.0000
  O   O6        1.0  0.03641  0.69211  0.64596  1.0000
  O   O7        1.0  0.62610  0.19158  0.14599  1.0000
  O   O8        1.0  0.96359  0.30790  0.35404  1.0000
