data_image0
_chemical_formula_structural       In8H24C20O44
_chemical_formula_sum              "In8 H24 C20 O44"
_cell_length_a       8.63012
_cell_length_b       10.8254
_cell_length_c       12.443
_cell_angle_alpha    89.9999
_cell_angle_beta     105.565
_cell_angle_gamma    90.0001

_space_group_name_H-M_alt    "P 1"
_space_group_IT_number       1

loop_
  _space_group_symop_operation_xyz
  'x, y, z'

loop_
  _atom_site_type_symbol
  _atom_site_label
  _atom_site_symmetry_multiplicity
  _atom_site_fract_x
  _atom_site_fract_y
  _atom_site_fract_z
  _atom_site_occupancy
  In  In1       1.0  0.13106  0.88110  0.78167  1.0000
  In  In2       1.0  0.36894  0.38110  0.71833  1.0000
  In  In3       1.0  0.86894  0.11890  0.21833  1.0000
  In  In4       1.0  0.63106  0.61890  0.28167  1.0000
  In  In5       1.0  0.76299  0.75868  0.82967  1.0000
  In  In6       1.0  0.73701  0.25868  0.67033  1.0000
  In  In7       1.0  0.23700  0.24132  0.17033  1.0000
  In  In8       1.0  0.26300  0.74132  0.32967  1.0000
  H   H1        1.0  0.85852  0.98526  0.79196  1.0000
  H   H2        1.0  0.64148  0.48526  0.70805  1.0000
  H   H3        1.0  0.14148  0.01474  0.20804  1.0000
  H   H4        1.0  0.35852  0.51474  0.29196  1.0000
  H   H5        1.0  0.00858  0.16054  0.55211  1.0000
  H   H6        1.0  0.49142  0.66054  0.94789  1.0000
  H   H7        1.0  0.99142  0.83946  0.44789  1.0000
  H   H8        1.0  0.50858  0.33946  0.05211  1.0000
  H   H9        1.0  0.18321  0.60340  0.02353  1.0000
  H   H10       1.0  0.31678  0.10340  0.47647  1.0000
  H   H11       1.0  0.81678  0.39659  0.97647  1.0000
  H   H12       1.0  0.68322  0.89659  0.52353  1.0000
  H   H13       1.0  0.91572  0.59502  0.57263  1.0000
  H   H14       1.0  0.58428  0.09502  0.92737  1.0000
  H   H15       1.0  0.08428  0.40499  0.42737  1.0000
  H   H16       1.0  0.41572  0.90498  0.07263  1.0000
  H   H17       1.0  0.08553  0.09428  0.94937  1.0000
  H   H18       1.0  0.41447  0.59428  0.55062  1.0000
  H   H19       1.0  0.91446  0.90572  0.05063  1.0000
  H   H20       1.0  0.58553  0.40572  0.44938  1.0000
  H   H21       1.0  0.36590  0.92680  0.62282  1.0000
  H   H22       1.0  0.13410  0.42680  0.87718  1.0000
  H   H23       1.0  0.63410  0.07320  0.37718  1.0000
  H   H24       1.0  0.86590  0.57320  0.12283  1.0000
  C   C1        1.0  0.00452  0.09341  0.61786  1.0000
  C   C2        1.0  0.49547  0.59341  0.88214  1.0000
  C   C3        1.0  0.99548  0.90659  0.38214  1.0000
  C   C4        1.0  0.50452  0.40659  0.11786  1.0000
  C   C5        1.0  0.11170  0.66736  0.96015  1.0000
  C   C6        1.0  0.38830  0.16735  0.53985  1.0000
  C   C7        1.0  0.88830  0.33265  0.03985  1.0000
  C   C8        1.0  0.61170  0.83265  0.46015  1.0000
  C   C9        1.0  0.91603  0.66252  0.63917  1.0000
  C   C10       1.0  0.58397  0.16252  0.86084  1.0000
  C   C11       1.0  0.08397  0.33748  0.36084  1.0000
  C   C12       1.0  0.41603  0.83748  0.13916  1.0000
  C   C13       1.0  0.21644  0.09160  0.95806  1.0000
  C   C14       1.0  0.28356  0.59160  0.54194  1.0000
  C   C15       1.0  0.78356  0.90840  0.04194  1.0000
  C   C16       1.0  0.71644  0.40840  0.45806  1.0000
  C   C17       1.0  0.43550  0.87178  0.69414  1.0000
  C   C18       1.0  0.06450  0.37178  0.80586  1.0000
  C   C19       1.0  0.56450  0.12823  0.30586  1.0000
  C   C20       1.0  0.93550  0.62822  0.19414  1.0000
  O   O1        1.0  0.58310  0.85579  0.69982  1.0000
  O   O2        1.0  0.91690  0.35579  0.80018  1.0000
  O   O3        1.0  0.41690  0.14421  0.30018  1.0000
  O   O4        1.0  0.08310  0.64421  0.19982  1.0000
  O   O5        1.0  0.19059  0.74165  0.91640  1.0000
  O   O6        1.0  0.30941  0.24164  0.58360  1.0000
  O   O7        1.0  0.80941  0.25835  0.08360  1.0000
  O   O8        1.0  0.69059  0.75835  0.41639  1.0000
  O   O9        1.0  0.91728  0.91399  0.83178  1.0000
  O   O10       1.0  0.58273  0.41399  0.66822  1.0000
  O   O11       1.0  0.08272  0.08601  0.16822  1.0000
  O   O12       1.0  0.41728  0.58601  0.33178  1.0000
  O   O13       1.0  0.89467  0.10243  0.66870  1.0000
  O   O14       1.0  0.60533  0.60243  0.83130  1.0000
  O   O15       1.0  0.10533  0.89757  0.33130  1.0000
  O   O16       1.0  0.39467  0.39757  0.16870  1.0000
  O   O17       1.0  0.11039  0.00912  0.63907  1.0000
  O   O18       1.0  0.38961  0.50912  0.86093  1.0000
  O   O19       1.0  0.88961  0.99087  0.36093  1.0000
  O   O20       1.0  0.61039  0.49087  0.13907  1.0000
  O   O21       1.0  0.30990  0.15913  0.03082  1.0000
  O   O22       1.0  0.19010  0.65913  0.46918  1.0000
  O   O23       1.0  0.69009  0.84087  0.96918  1.0000
  O   O24       1.0  0.80990  0.34087  0.53082  1.0000
  O   O25       1.0  0.26960  0.01994  0.89544  1.0000
  O   O26       1.0  0.23040  0.51993  0.60455  1.0000
  O   O27       1.0  0.73040  0.98007  0.10456  1.0000
  O   O28       1.0  0.76960  0.48006  0.39545  1.0000
  O   O29       1.0  0.36592  0.82789  0.76359  1.0000
  O   O30       1.0  0.13408  0.32789  0.73640  1.0000
  O   O31       1.0  0.63408  0.17211  0.23640  1.0000
  O   O32       1.0  0.86592  0.67211  0.26360  1.0000
  O   O33       1.0  0.80916  0.64857  0.69163  1.0000
  O   O34       1.0  0.69083  0.14856  0.80837  1.0000
  O   O35       1.0  0.19083  0.35144  0.30837  1.0000
  O   O36       1.0  0.30917  0.85144  0.19163  1.0000
  O   O37       1.0  0.96016  0.65648  0.94122  1.0000
  O   O38       1.0  0.53983  0.15647  0.55878  1.0000
  O   O39       1.0  0.03983  0.34353  0.05878  1.0000
  O   O40       1.0  0.46017  0.84353  0.44122  1.0000
  O   O41       1.0  0.02370  0.74514  0.65420  1.0000
  O   O42       1.0  0.47629  0.24514  0.84580  1.0000
  O   O43       1.0  0.97630  0.25486  0.34580  1.0000
  O   O44       1.0  0.52371  0.75486  0.15420  1.0000
