data_image0
_chemical_formula_structural       In4H12C8O20
_chemical_formula_sum              "In4 H12 C8 O20"
_cell_length_a       6.135
_cell_length_b       9.3829
_cell_length_c       9.38296
_cell_angle_alpha    83.8709
_cell_angle_beta     70.9278
_cell_angle_gamma    70.9273

_space_group_name_H-M_alt    "P 1"
_space_group_IT_number       1

loop_
  _space_group_symop_operation_xyz
  'x, y, z'

loop_
  _atom_site_type_symbol
  _atom_site_label
  _atom_site_symmetry_multiplicity
  _atom_site_fract_x
  _atom_site_fract_y
  _atom_site_fract_z
  _atom_site_occupancy
  In  In1       1.0  0.23042  0.89436  0.39439  1.0000
  In  In2       1.0  0.51957  0.10562  0.60565  1.0000
  In  In3       1.0  0.87500  0.60571  0.89429  1.0000
  In  In4       1.0  0.37500  0.39432  0.10568  1.0000
  H   H1        1.0  0.77982  0.93532  0.18317  1.0000
  H   H2        1.0  0.89927  0.06479  0.81705  1.0000
  H   H3        1.0  0.28420  0.81686  0.93529  1.0000
  H   H4        1.0  0.03634  0.18318  0.06477  1.0000
  H   H5        1.0  0.97017  0.31684  0.56468  1.0000
  H   H6        1.0  0.85074  0.68293  0.43520  1.0000
  H   H7        1.0  0.46580  0.56472  0.68314  1.0000
  H   H8        1.0  0.71366  0.43524  0.31681  1.0000
  H   H9        1.0  0.37499  0.13087  0.36913  1.0000
  H   H10       1.0  0.87500  0.86904  0.63097  1.0000
  H   H11       1.0  0.49417  0.63099  0.13081  1.0000
  H   H12       1.0  0.25582  0.36919  0.86900  1.0000
  C   C1        1.0  0.74782  0.84545  0.13333  1.0000
  C   C2        1.0  0.72752  0.15459  0.86675  1.0000
  C   C3        1.0  0.40602  0.86676  0.84542  1.0000
  C   C4        1.0  0.11832  0.13333  0.15457  1.0000
  C   C5        1.0  0.00217  0.36667  0.65455  1.0000
  C   C6        1.0  0.02249  0.63325  0.34541  1.0000
  C   C7        1.0  0.34398  0.65458  0.63325  1.0000
  C   C8        1.0  0.63167  0.34542  0.36667  1.0000
  O   O1        1.0  0.37500  0.05235  0.44765  1.0000
  O   O2        1.0  0.87501  0.94755  0.55245  1.0000
  O   O3        1.0  0.57243  0.55246  0.05235  1.0000
  O   O4        1.0  0.17757  0.44765  0.94754  1.0000
  O   O5        1.0  0.55148  0.81342  0.19046  1.0000
  O   O6        1.0  0.55648  0.18641  0.80947  1.0000
  O   O7        1.0  0.63438  0.80952  0.81341  1.0000
  O   O8        1.0  0.25774  0.19036  0.18651  1.0000
  O   O9        1.0  0.19851  0.30954  0.68658  1.0000
  O   O10       1.0  0.19354  0.69051  0.31360  1.0000
  O   O11       1.0  0.11564  0.68659  0.69048  1.0000
  O   O12       1.0  0.49225  0.31348  0.30963  1.0000
  O   O13       1.0  0.91717  0.77783  0.01901  1.0000
  O   O14       1.0  0.71442  0.22234  0.98115  1.0000
  O   O15       1.0  0.30468  0.98115  0.77774  1.0000
  O   O16       1.0  0.06332  0.01905  0.22236  1.0000
  O   O17       1.0  0.83284  0.48099  0.72217  1.0000
  O   O18       1.0  0.03557  0.51885  0.27766  1.0000
  O   O19       1.0  0.44532  0.72226  0.51886  1.0000
  O   O20       1.0  0.68669  0.27765  0.48094  1.0000
