data_image0
_chemical_formula_structural       Ag2H34C30O22
_chemical_formula_sum              "Ag2 H34 C30 O22"
_cell_length_a       8.14868
_cell_length_b       10.6697
_cell_length_c       11.1506
_cell_angle_alpha    109.699
_cell_angle_beta     100.383
_cell_angle_gamma    102.717

_space_group_name_H-M_alt    "P 1"
_space_group_IT_number       1

loop_
  _space_group_symop_operation_xyz
  'x, y, z'

loop_
  _atom_site_type_symbol
  _atom_site_label
  _atom_site_symmetry_multiplicity
  _atom_site_fract_x
  _atom_site_fract_y
  _atom_site_fract_z
  _atom_site_occupancy
  Ag  Ag1       1.0  0.88958  0.44195  0.28286  1.0000
  Ag  Ag2       1.0  0.11042  0.55806  0.71713  1.0000
  H   H1        1.0  0.89017  0.19929  0.29950  1.0000
  H   H2        1.0  0.10982  0.80070  0.70049  1.0000
  H   H3        1.0  0.94299  0.19129  0.16706  1.0000
  H   H4        1.0  0.05700  0.80871  0.83294  1.0000
  H   H5        1.0  0.66675  0.01978  0.29627  1.0000
  H   H6        1.0  0.33325  0.98023  0.70372  1.0000
  H   H7        1.0  0.57467  0.91649  0.37906  1.0000
  H   H8        1.0  0.42533  0.08351  0.62094  1.0000
  H   H9        1.0  0.80959  0.98319  0.41480  1.0000
  H   H10       1.0  0.19042  0.01681  0.58520  1.0000
  H   H11       1.0  0.79768  0.95080  0.72619  1.0000
  H   H12       1.0  0.20232  0.04920  0.27381  1.0000
  H   H13       1.0  0.95870  0.05398  0.88179  1.0000
  H   H14       1.0  0.04130  0.94602  0.11820  1.0000
  H   H15       1.0  0.02514  0.00481  0.73170  1.0000
  H   H16       1.0  0.97486  0.99519  0.26829  1.0000
  H   H17       1.0  0.61418  0.54461  0.19172  1.0000
  H   H18       1.0  0.38583  0.45540  0.80828  1.0000
  H   H19       1.0  0.62433  0.71683  0.19860  1.0000
  H   H20       1.0  0.37568  0.28318  0.80140  1.0000
  H   H21       1.0  0.82380  0.67855  0.24985  1.0000
  H   H22       1.0  0.17621  0.32146  0.75015  1.0000
  H   H23       1.0  0.61621  0.90908  0.86739  1.0000
  H   H24       1.0  0.38380  0.09092  0.13260  1.0000
  H   H25       1.0  0.64874  0.88727  0.02095  1.0000
  H   H26       1.0  0.35127  0.11273  0.97905  1.0000
  H   H27       1.0  0.43113  0.82343  0.90900  1.0000
  H   H28       1.0  0.56888  0.17658  0.09100  1.0000
  H   H29       1.0  0.57325  0.61493  0.39992  1.0000
  H   H30       1.0  0.42674  0.38507  0.60008  1.0000
  H   H31       1.0  0.77875  0.75147  0.46332  1.0000
  H   H32       1.0  0.22123  0.24853  0.53669  1.0000
  H   H33       1.0  0.59693  0.77883  0.52927  1.0000
  H   H34       1.0  0.40306  0.22117  0.47073  1.0000
  C   C1        1.0  0.78738  0.48896  0.66605  1.0000
  C   C2        1.0  0.21262  0.51103  0.33395  1.0000
  C   C3        1.0  0.75920  0.55307  0.79282  1.0000
  C   C4        1.0  0.24079  0.44692  0.20718  1.0000
  C   C5        1.0  0.75721  0.45972  0.85726  1.0000
  C   C6        1.0  0.24280  0.54027  0.14275  1.0000
  C   C7        1.0  0.77860  0.33448  0.77024  1.0000
  C   C8        1.0  0.22141  0.66552  0.22976  1.0000
  C   C9        1.0  0.79776  0.35136  0.65346  1.0000
  C   C10       1.0  0.20223  0.64863  0.34655  1.0000
  C   C11       1.0  0.80879  0.24181  0.53508  1.0000
  C   C12       1.0  0.19120  0.75818  0.46493  1.0000
  C   C13       1.0  0.68395  0.00284  0.38880  1.0000
  C   C14       1.0  0.31606  0.99716  0.61120  1.0000
  C   C15       1.0  0.77954  0.20751  0.79545  1.0000
  C   C16       1.0  0.22048  0.79250  0.20455  1.0000
  C   C17       1.0  0.92283  0.03375  0.77610  1.0000
  C   C18       1.0  0.07718  0.96625  0.22390  1.0000
  C   C19       1.0  0.75879  0.49037  0.99553  1.0000
  C   C20       1.0  0.24121  0.50963  0.00447  1.0000
  C   C21       1.0  0.69145  0.63671  0.18147  1.0000
  C   C22       1.0  0.30856  0.36330  0.81854  1.0000
  C   C23       1.0  0.74901  0.69780  0.85073  1.0000
  C   C24       1.0  0.25097  0.30219  0.14926  1.0000
  C   C25       1.0  0.57049  0.84090  0.91706  1.0000
  C   C26       1.0  0.42952  0.15910  0.08294  1.0000
  C   C27       1.0  0.74558  0.52919  0.55372  1.0000
  C   C28       1.0  0.25441  0.47080  0.44624  1.0000
  C   C29       1.0  0.66355  0.70280  0.48804  1.0000
  C   C30       1.0  0.33643  0.29721  0.51197  1.0000
  O   O1        1.0  0.92538  0.25327  0.47884  1.0000
  O   O2        1.0  0.07463  0.74674  0.52115  1.0000
  O   O3        1.0  0.67618  0.12275  0.49578  1.0000
  O   O4        1.0  0.32382  0.87725  0.50422  1.0000
  O   O5        1.0  0.91197  0.15994  0.75803  1.0000
  O   O6        1.0  0.08802  0.84005  0.24197  1.0000
  O   O7        1.0  0.67446  0.14807  0.83949  1.0000
  O   O8        1.0  0.32557  0.85193  0.16051  1.0000
  O   O9        1.0  0.80659  0.42301  0.05850  1.0000
  O   O10       1.0  0.19339  0.57699  0.94150  1.0000
  O   O11       1.0  0.70139  0.60109  0.04707  1.0000
  O   O12       1.0  0.29863  0.39891  0.95294  1.0000
  O   O13       1.0  0.58750  0.70260  0.85218  1.0000
  O   O14       1.0  0.41249  0.29740  0.14783  1.0000
  O   O15       1.0  0.87750  0.80316  0.89492  1.0000
  O   O16       1.0  0.12250  0.19684  0.10508  1.0000
  O   O17       1.0  0.72002  0.65625  0.59128  1.0000
  O   O18       1.0  0.27996  0.34376  0.40874  1.0000
  O   O19       1.0  0.72567  0.45407  0.43647  1.0000
  O   O20       1.0  0.27433  0.54593  0.56354  1.0000
  O   O21       1.0  0.84615  0.19565  0.20978  1.0000
  O   O22       1.0  0.15385  0.80436  0.79021  1.0000
