data_image0
_chemical_formula_structural       Cu6H32C28I4N12
_chemical_formula_sum              "Cu6 H32 C28 I4 N12"
_cell_length_a       8.29123
_cell_length_b       11.4739
_cell_length_c       12.2799
_cell_angle_alpha    86.0509
_cell_angle_beta     71.2015
_cell_angle_gamma    89.7171

_space_group_name_H-M_alt    "P 1"
_space_group_IT_number       1

loop_
  _space_group_symop_operation_xyz
  'x, y, z'

loop_
  _atom_site_type_symbol
  _atom_site_label
  _atom_site_symmetry_multiplicity
  _atom_site_fract_x
  _atom_site_fract_y
  _atom_site_fract_z
  _atom_site_occupancy
  Cu  Cu1       1.0  0.52733  0.10306  0.48155  1.0000
  Cu  Cu2       1.0  0.47268  0.89693  0.51843  1.0000
  Cu  Cu3       1.0  0.79649  0.59243  0.47236  1.0000
  Cu  Cu4       1.0  0.20353  0.40756  0.52763  1.0000
  Cu  Cu5       1.0  0.97236  0.54116  0.91534  1.0000
  Cu  Cu6       1.0  0.02762  0.45882  0.08467  1.0000
  H   H1        1.0  0.66816  0.30421  0.59042  1.0000
  H   H2        1.0  0.33188  0.69577  0.40955  1.0000
  H   H3        1.0  0.53296  0.30341  0.28772  1.0000
  H   H4        1.0  0.46703  0.69659  0.71226  1.0000
  H   H5        1.0  0.67268  0.55637  0.19905  1.0000
  H   H6        1.0  0.32731  0.44365  0.80096  1.0000
  H   H7        1.0  0.98027  0.71803  0.21042  1.0000
  H   H8        1.0  0.01972  0.28197  0.78958  1.0000
  H   H9        1.0  0.76963  0.74106  0.10620  1.0000
  H   H10       1.0  0.23034  0.25895  0.89382  1.0000
  H   H11       1.0  0.63527  0.82089  0.21958  1.0000
  H   H12       1.0  0.36472  0.17912  0.78044  1.0000
  H   H13       1.0  0.99917  0.88553  0.06288  1.0000
  H   H14       1.0  0.00080  0.11448  0.93713  1.0000
  H   H15       1.0  0.81158  0.95829  0.06103  1.0000
  H   H16       1.0  0.18840  0.04172  0.93899  1.0000
  H   H17       1.0  0.76869  0.02982  0.25201  1.0000
  H   H18       1.0  0.23131  0.97019  0.74801  1.0000
  H   H19       1.0  0.97828  0.06654  0.16157  1.0000
  H   H20       1.0  0.02172  0.93345  0.83845  1.0000
  H   H21       1.0  0.09609  0.90365  0.25547  1.0000
  H   H22       1.0  0.90391  0.09635  0.74453  1.0000
  H   H23       1.0  0.96404  0.98942  0.36239  1.0000
  H   H24       1.0  0.03598  0.01058  0.63761  1.0000
  H   H25       1.0  0.71938  0.85267  0.39103  1.0000
  H   H26       1.0  0.28062  0.14734  0.60899  1.0000
  H   H27       1.0  0.00710  0.87676  0.51487  1.0000
  H   H28       1.0  0.99290  0.12324  0.48513  1.0000
  H   H29       1.0  0.05105  0.76942  0.74451  1.0000
  H   H30       1.0  0.94897  0.23058  0.25550  1.0000
  H   H31       1.0  0.80427  0.45122  0.73891  1.0000
  H   H32       1.0  0.19574  0.54878  0.26108  1.0000
  C   C1        1.0  0.64991  0.33555  0.50977  1.0000
  C   C2        1.0  0.35012  0.66444  0.49021  1.0000
  C   C3        1.0  0.57939  0.33630  0.35309  1.0000
  C   C4        1.0  0.42061  0.66371  0.64690  1.0000
  C   C5        1.0  0.64934  0.44485  0.35788  1.0000
  C   C6        1.0  0.35066  0.55517  0.64211  1.0000
  C   C7        1.0  0.69473  0.54933  0.28255  1.0000
  C   C8        1.0  0.30525  0.45068  0.71744  1.0000
  C   C9        1.0  0.84686  0.73942  0.25880  1.0000
  C   C10       1.0  0.15311  0.26057  0.74119  1.0000
  C   C11       1.0  0.76869  0.79973  0.17365  1.0000
  C   C12       1.0  0.23128  0.20030  0.82634  1.0000
  C   C13       1.0  0.87251  0.91125  0.11801  1.0000
  C   C14       1.0  0.12748  0.08877  0.88200  1.0000
  C   C15       1.0  0.89321  0.99274  0.20653  1.0000
  C   C16       1.0  0.10678  0.00727  0.79347  1.0000
  C   C17       1.0  0.96329  0.93016  0.29584  1.0000
  C   C18       1.0  0.03672  0.06985  0.70415  1.0000
  C   C19       1.0  0.85265  0.82267  0.35078  1.0000
  C   C20       1.0  0.14736  0.17734  0.64923  1.0000
  C   C21       1.0  0.95198  0.78933  0.51963  1.0000
  C   C22       1.0  0.04804  0.21067  0.48038  1.0000
  C   C23       1.0  0.94072  0.70546  0.61408  1.0000
  C   C24       1.0  0.05929  0.29453  0.38591  1.0000
  C   C25       1.0  0.98511  0.70408  0.71397  1.0000
  C   C26       1.0  0.01490  0.29591  0.28602  1.0000
  C   C27       1.0  0.85915  0.53842  0.71145  1.0000
  C   C28       1.0  0.14086  0.46157  0.28854  1.0000
  I   I1        1.0  0.63088  0.99577  0.63775  1.0000
  I   I2        1.0  0.36910  0.00422  0.36224  1.0000
  I   I3        1.0  0.80478  0.35413  0.01852  1.0000
  I   I4        1.0  0.19520  0.64587  0.98149  1.0000
  N   N1        1.0  0.58099  0.26776  0.44886  1.0000
  N   N2        1.0  0.41902  0.73223  0.55113  1.0000
  N   N3        1.0  0.69237  0.44248  0.45882  1.0000
  N   N4        1.0  0.30765  0.55751  0.54119  1.0000
  N   N5        1.0  0.76693  0.63079  0.31936  1.0000
  N   N6        1.0  0.23305  0.36920  0.68065  1.0000
  N   N7        1.0  0.89131  0.75410  0.44246  1.0000
  N   N8        1.0  0.10871  0.24589  0.55756  1.0000
  N   N9        1.0  0.86058  0.59878  0.61411  1.0000
  N   N10       1.0  0.13943  0.40119  0.38588  1.0000
  N   N11       1.0  0.93301  0.59894  0.77491  1.0000
  N   N12       1.0  0.06700  0.40105  0.22509  1.0000
