data_image0
_chemical_formula_structural       Cd4H40C40N16
_chemical_formula_sum              "Cd4 H40 C40 N16"
_cell_length_a       7.3227
_cell_length_b       11.9487
_cell_length_c       13.8316
_cell_angle_alpha    87.9303
_cell_angle_beta     74.6677
_cell_angle_gamma    72.1345

_space_group_name_H-M_alt    "P 1"
_space_group_IT_number       1

loop_
  _space_group_symop_operation_xyz
  'x, y, z'

loop_
  _atom_site_type_symbol
  _atom_site_label
  _atom_site_symmetry_multiplicity
  _atom_site_fract_x
  _atom_site_fract_y
  _atom_site_fract_z
  _atom_site_occupancy
  Cd  Cd1       1.0  0.66938  0.65375  0.88365  1.0000
  Cd  Cd2       1.0  0.20654  0.84640  0.61651  1.0000
  Cd  Cd3       1.0  0.33061  0.34626  0.11635  1.0000
  Cd  Cd4       1.0  0.79346  0.15361  0.38349  1.0000
  H   H1        1.0  0.26138  0.84761  0.99641  1.0000
  H   H2        1.0  0.10508  0.65234  0.50413  1.0000
  H   H3        1.0  0.73862  0.15239  0.00359  1.0000
  H   H4        1.0  0.89492  0.34765  0.49588  1.0000
  H   H5        1.0  0.12747  0.99955  0.14029  1.0000
  H   H6        1.0  0.26685  0.50035  0.36025  1.0000
  H   H7        1.0  0.87255  0.00047  0.85971  1.0000
  H   H8        1.0  0.73315  0.49964  0.63976  1.0000
  H   H9        1.0  0.36718  0.03764  0.22440  1.0000
  H   H10       1.0  0.62843  0.46261  0.27576  1.0000
  H   H11       1.0  0.63284  0.96237  0.77559  1.0000
  H   H12       1.0  0.37157  0.53738  0.72425  1.0000
  H   H13       1.0  0.72824  0.91718  0.16737  1.0000
  H   H14       1.0  0.81193  0.58326  0.33252  1.0000
  H   H15       1.0  0.27178  0.08282  0.83261  1.0000
  H   H16       1.0  0.18805  0.41675  0.66748  1.0000
  H   H17       1.0  0.96061  0.78278  0.94068  1.0000
  H   H18       1.0  0.68397  0.71712  0.55936  1.0000
  H   H19       1.0  0.03940  0.21722  0.05932  1.0000
  H   H20       1.0  0.31603  0.28288  0.44064  1.0000
  H   H21       1.0  0.98192  0.75427  0.06514  1.0000
  H   H22       1.0  0.80098  0.74565  0.43486  1.0000
  H   H23       1.0  0.01808  0.24572  0.93486  1.0000
  H   H24       1.0  0.19900  0.25436  0.56514  1.0000
  H   H25       1.0  0.70358  0.61276  0.12525  1.0000
  H   H26       1.0  0.44115  0.88723  0.37491  1.0000
  H   H27       1.0  0.29641  0.38724  0.87475  1.0000
  H   H28       1.0  0.55885  0.11276  0.62509  1.0000
  H   H29       1.0  0.95517  0.57458  0.13418  1.0000
  H   H30       1.0  0.66354  0.92531  0.36587  1.0000
  H   H31       1.0  0.04483  0.42542  0.86583  1.0000
  H   H32       1.0  0.33645  0.07470  0.63414  1.0000
  H   H33       1.0  0.22624  0.56705  0.97383  1.0000
  H   H34       1.0  0.76734  0.93280  0.52603  1.0000
  H   H35       1.0  0.77376  0.43295  0.02616  1.0000
  H   H36       1.0  0.23264  0.06721  0.47397  1.0000
  H   H37       1.0  0.15012  0.60341  0.86198  1.0000
  H   H38       1.0  0.61600  0.89662  0.63799  1.0000
  H   H39       1.0  0.84986  0.39660  0.13802  1.0000
  H   H40       1.0  0.38400  0.10338  0.36201  1.0000
  C   C1        1.0  0.63979  0.47949  0.87431  1.0000
  C   C2        1.0  0.99328  0.02065  0.62584  1.0000
  C   C3        1.0  0.36021  0.52050  0.12570  1.0000
  C   C4        1.0  0.00672  0.97935  0.37416  1.0000
  C   C5        1.0  0.33093  0.79633  0.74920  1.0000
  C   C6        1.0  0.87568  0.70415  0.75095  1.0000
  C   C7        1.0  0.66911  0.20368  0.25079  1.0000
  C   C8        1.0  0.12426  0.29583  0.24902  1.0000
  C   C9        1.0  0.35767  0.86660  0.03734  1.0000
  C   C10       1.0  0.26112  0.63349  0.46307  1.0000
  C   C11       1.0  0.64233  0.13340  0.96267  1.0000
  C   C12       1.0  0.73888  0.36650  0.53694  1.0000
  C   C13       1.0  0.28563  0.95128  0.11579  1.0000
  C   C14       1.0  0.35217  0.54877  0.38458  1.0000
  C   C15       1.0  0.71438  0.04872  0.88420  1.0000
  C   C16       1.0  0.64784  0.45122  0.61542  1.0000
  C   C17       1.0  0.41937  0.97119  0.16323  1.0000
  C   C18       1.0  0.55308  0.52901  0.33694  1.0000
  C   C19       1.0  0.58064  0.02881  0.83677  1.0000
  C   C20       1.0  0.44693  0.47098  0.66306  1.0000
  C   C21       1.0  0.61948  0.90473  0.13149  1.0000
  C   C22       1.0  0.65497  0.59558  0.36853  1.0000
  C   C23       1.0  0.38053  0.09527  0.86850  1.0000
  C   C24       1.0  0.34503  0.40442  0.63147  1.0000
  C   C25       1.0  0.68087  0.82096  0.05236  1.0000
  C   C26       1.0  0.55362  0.67924  0.44776  1.0000
  C   C27       1.0  0.31915  0.17904  0.94763  1.0000
  C   C28       1.0  0.44637  0.32076  0.55224  1.0000
  C   C29       1.0  0.89566  0.74787  0.01204  1.0000
  C   C30       1.0  0.65528  0.75215  0.48804  1.0000
  C   C31       1.0  0.10434  0.25213  0.98796  1.0000
  C   C32       1.0  0.34472  0.24784  0.51196  1.0000
  C   C33       1.0  0.85962  0.56721  0.08612  1.0000
  C   C34       1.0  0.51263  0.93279  0.41395  1.0000
  C   C35       1.0  0.14038  0.43279  0.91388  1.0000
  C   C36       1.0  0.48736  0.06721  0.58605  1.0000
  C   C37       1.0  0.11806  0.56087  0.93352  1.0000
  C   C38       1.0  0.61268  0.93910  0.56644  1.0000
  C   C39       1.0  0.88194  0.43913  0.06648  1.0000
  C   C40       1.0  0.38730  0.06090  0.43357  1.0000
  N   N1        1.0  0.63693  0.38268  0.86683  1.0000
  N   N2        1.0  0.88705  0.11773  0.63321  1.0000
  N   N3        1.0  0.36308  0.61732  0.13316  1.0000
  N   N4        1.0  0.11293  0.88227  0.36678  1.0000
  N   N5        1.0  0.38934  0.76499  0.81980  1.0000
  N   N6        1.0  0.97375  0.73535  0.68047  1.0000
  N   N7        1.0  0.61067  0.23501  0.18020  1.0000
  N   N8        1.0  0.02626  0.26465  0.31953  1.0000
  N   N9        1.0  0.55066  0.80363  0.00619  1.0000
  N   N10       1.0  0.36004  0.69650  0.49408  1.0000
  N   N11       1.0  0.44934  0.19636  0.99381  1.0000
  N   N12       1.0  0.63996  0.30350  0.50593  1.0000
  N   N13       1.0  0.91346  0.62489  0.99105  1.0000
  N   N14       1.0  0.52924  0.87520  0.50904  1.0000
  N   N15       1.0  0.08654  0.37511  0.00895  1.0000
  N   N16       1.0  0.47074  0.12480  0.49096  1.0000
