data_image0
_chemical_formula_structural       Zn4H40C40N16
_chemical_formula_sum              "Zn4 H40 C40 N16"
_cell_length_a       7.29884
_cell_length_b       11.6565
_cell_length_c       13.5683
_cell_angle_alpha    86.784
_cell_angle_beta     74.4557
_cell_angle_gamma    71.7378

_space_group_name_H-M_alt    "P 1"
_space_group_IT_number       1

loop_
  _space_group_symop_operation_xyz
  'x, y, z'

loop_
  _atom_site_type_symbol
  _atom_site_label
  _atom_site_symmetry_multiplicity
  _atom_site_fract_x
  _atom_site_fract_y
  _atom_site_fract_z
  _atom_site_occupancy
  Zn  Zn1       1.0  0.27698  0.66887  0.87704  1.0000
  Zn  Zn2       1.0  0.82282  0.83085  0.62243  1.0000
  Zn  Zn3       1.0  0.72302  0.33114  0.12297  1.0000
  Zn  Zn4       1.0  0.17718  0.16914  0.37757  1.0000
  H   H1        1.0  0.44386  0.82094  0.98146  1.0000
  H   H2        1.0  0.24647  0.67872  0.51781  1.0000
  H   H3        1.0  0.55615  0.17907  0.01854  1.0000
  H   H4        1.0  0.75353  0.32128  0.48219  1.0000
  H   H5        1.0  0.31190  0.97275  0.12882  1.0000
  H   H6        1.0  0.41290  0.52729  0.37007  1.0000
  H   H7        1.0  0.68809  0.02726  0.87119  1.0000
  H   H8        1.0  0.58710  0.47271  0.62992  1.0000
  H   H9        1.0  0.94834  0.03030  0.21988  1.0000
  H   H10       1.0  0.19723  0.47000  0.27919  1.0000
  H   H11       1.0  0.05165  0.96970  0.78012  1.0000
  H   H12       1.0  0.80276  0.53000  0.72081  1.0000
  H   H13       1.0  0.73225  0.92834  0.16581  1.0000
  H   H14       1.0  0.82519  0.57167  0.33375  1.0000
  H   H15       1.0  0.26775  0.07166  0.83420  1.0000
  H   H16       1.0  0.17480  0.42833  0.66626  1.0000
  H   H17       1.0  0.71607  0.76416  0.06863  1.0000
  H   H18       1.0  0.54810  0.73595  0.43118  1.0000
  H   H19       1.0  0.28394  0.23585  0.93137  1.0000
  H   H20       1.0  0.45190  0.26405  0.56883  1.0000
  H   H21       1.0  0.82397  0.79424  0.93931  1.0000
  H   H22       1.0  0.55773  0.70565  0.56040  1.0000
  H   H23       1.0  0.17604  0.20576  0.06069  1.0000
  H   H24       1.0  0.44226  0.29434  0.43961  1.0000
  H   H25       1.0  0.85213  0.57824  0.13708  1.0000
  H   H26       1.0  0.56653  0.92213  0.36286  1.0000
  H   H27       1.0  0.14787  0.42176  0.86292  1.0000
  H   H28       1.0  0.43347  0.07786  0.63714  1.0000
  H   H29       1.0  0.08481  0.60882  0.11981  1.0000
  H   H30       1.0  0.81282  0.89123  0.37997  1.0000
  H   H31       1.0  0.91519  0.39119  0.88019  1.0000
  H   H32       1.0  0.18717  0.10877  0.62003  1.0000
  H   H33       1.0  0.87737  0.60973  0.86052  1.0000
  H   H34       1.0  0.34803  0.89014  0.63929  1.0000
  H   H35       1.0  0.12264  0.39028  0.13948  1.0000
  H   H36       1.0  0.65197  0.10986  0.36070  1.0000
  H   H37       1.0  0.72724  0.57755  0.97869  1.0000
  H   H38       1.0  0.28346  0.92264  0.52114  1.0000
  H   H39       1.0  0.27276  0.42245  0.02131  1.0000
  H   H40       1.0  0.71654  0.07736  0.47886  1.0000
  C   C1        1.0  0.28753  0.84834  0.02507  1.0000
  C   C2        1.0  0.16086  0.65145  0.47421  1.0000
  C   C3        1.0  0.71248  0.15167  0.97493  1.0000
  C   C4        1.0  0.83914  0.34855  0.52579  1.0000
  C   C5        1.0  0.21282  0.93331  0.10521  1.0000
  C   C6        1.0  0.25082  0.56666  0.39389  1.0000
  C   C7        1.0  0.78717  0.06670  0.89479  1.0000
  C   C8        1.0  0.74917  0.43334  0.60610  1.0000
  C   C9        1.0  0.01026  0.96434  0.15651  1.0000
  C   C10       1.0  0.13020  0.53578  0.34267  1.0000
  C   C11       1.0  0.98975  0.03566  0.84349  1.0000
  C   C12       1.0  0.86980  0.46422  0.65732  1.0000
  C   C13       1.0  0.89078  0.90768  0.12671  1.0000
  C   C14       1.0  0.92429  0.59230  0.37269  1.0000
  C   C15       1.0  0.10922  0.09232  0.87329  1.0000
  C   C16       1.0  0.07570  0.40770  0.62731  1.0000
  C   C17       1.0  0.97630  0.82218  0.04633  1.0000
  C   C18       1.0  0.84444  0.67770  0.45318  1.0000
  C   C19       1.0  0.02371  0.17783  0.95367  1.0000
  C   C20       1.0  0.15555  0.32229  0.54683  1.0000
  C   C21       1.0  0.85941  0.75479  0.01043  1.0000
  C   C22       1.0  0.62437  0.74517  0.48928  1.0000
  C   C23       1.0  0.14059  0.24521  0.98957  1.0000
  C   C24       1.0  0.37563  0.25483  0.51073  1.0000
  C   C25       1.0  0.00202  0.56652  0.08433  1.0000
  C   C26       1.0  0.65242  0.93359  0.41557  1.0000
  C   C27       1.0  0.99798  0.43348  0.91567  1.0000
  C   C28       1.0  0.34757  0.06641  0.58443  1.0000
  C   C29       1.0  0.88222  0.56671  0.93434  1.0000
  C   C30       1.0  0.38345  0.93327  0.56556  1.0000
  C   C31       1.0  0.11778  0.43329  0.06566  1.0000
  C   C32       1.0  0.61654  0.06673  0.43444  1.0000
  C   C33       1.0  0.56991  0.40689  0.86311  1.0000
  C   C34       1.0  0.83954  0.09274  0.63657  1.0000
  C   C35       1.0  0.43008  0.59313  0.13688  1.0000
  C   C36       1.0  0.16043  0.90725  0.36343  1.0000
  C   C37       1.0  0.62017  0.78546  0.73633  1.0000
  C   C38       1.0  0.14234  0.71444  0.76321  1.0000
  C   C39       1.0  0.37983  0.21453  0.26368  1.0000
  C   C40       1.0  0.85766  0.28556  0.23679  1.0000
  N   N1        1.0  0.17152  0.79473  0.99581  1.0000
  N   N2        1.0  0.96209  0.70503  0.50360  1.0000
  N   N3        1.0  0.82849  0.20528  0.00419  1.0000
  N   N4        1.0  0.03791  0.29496  0.49640  1.0000
  N   N5        1.0  0.97933  0.62767  0.98764  1.0000
  N   N6        1.0  0.59464  0.87224  0.51217  1.0000
  N   N7        1.0  0.02068  0.37233  0.01235  1.0000
  N   N8        1.0  0.40536  0.12776  0.48783  1.0000
  N   N9        1.0  0.46334  0.50745  0.86966  1.0000
  N   N10       1.0  0.84099  0.99202  0.62997  1.0000
  N   N11       1.0  0.53668  0.49253  0.13034  1.0000
  N   N12       1.0  0.15900  0.00796  0.37004  1.0000
  N   N13       1.0  0.50848  0.75398  0.80275  1.0000
  N   N14       1.0  0.06528  0.74565  0.69677  1.0000
  N   N15       1.0  0.49153  0.24601  0.19726  1.0000
  N   N16       1.0  0.93474  0.25434  0.30323  1.0000
