data_image0
_chemical_formula_structural       V2Cu2P2H16C20N4O12
_chemical_formula_sum              "V2 Cu2 P2 H16 C20 N4 O12"
_cell_length_a       5.52454
_cell_length_b       10.1822
_cell_length_c       11.633
_cell_angle_alpha    72.9654
_cell_angle_beta     80.0131
_cell_angle_gamma    87.4956

_space_group_name_H-M_alt    "P 1"
_space_group_IT_number       1

loop_
  _space_group_symop_operation_xyz
  'x, y, z'

loop_
  _atom_site_type_symbol
  _atom_site_label
  _atom_site_symmetry_multiplicity
  _atom_site_fract_x
  _atom_site_fract_y
  _atom_site_fract_z
  _atom_site_occupancy
  V   V1        1.0  0.37329  0.70444  0.74862  1.0000
  V   V2        1.0  0.62669  0.29557  0.25140  1.0000
  Cu  Cu1       1.0  0.83032  0.61902  0.16511  1.0000
  Cu  Cu2       1.0  0.16969  0.38098  0.83489  1.0000
  P   P1        1.0  0.83518  0.61232  0.88746  1.0000
  P   P2        1.0  0.16481  0.38768  0.11255  1.0000
  H   H1        1.0  0.11642  0.05966  0.15870  1.0000
  H   H2        1.0  0.88359  0.94034  0.84130  1.0000
  H   H3        1.0  0.66518  0.93094  0.42926  1.0000
  H   H4        1.0  0.33481  0.06905  0.57073  1.0000
  H   H5        1.0  0.11586  0.91360  0.01440  1.0000
  H   H6        1.0  0.88415  0.08640  0.98561  1.0000
  H   H7        1.0  0.42296  0.72567  0.02042  1.0000
  H   H8        1.0  0.57705  0.27434  0.97957  1.0000
  H   H9        1.0  0.97959  0.83283  0.56148  1.0000
  H   H10       1.0  0.02041  0.16717  0.43852  1.0000
  H   H11       1.0  0.41481  0.00388  0.30325  1.0000
  H   H12       1.0  0.58522  0.99612  0.69674  1.0000
  H   H13       1.0  0.24434  0.64057  0.52100  1.0000
  H   H14       1.0  0.75566  0.35942  0.47900  1.0000
  H   H15       1.0  0.18534  0.55276  0.34501  1.0000
  H   H16       1.0  0.81465  0.44723  0.65499  1.0000
  C   C1        1.0  0.24419  0.97496  0.15819  1.0000
  C   C2        1.0  0.75581  0.02504  0.84181  1.0000
  C   C3        1.0  0.78017  0.84606  0.41433  1.0000
  C   C4        1.0  0.21983  0.15394  0.58568  1.0000
  C   C5        1.0  0.57630  0.83692  0.23742  1.0000
  C   C6        1.0  0.42371  0.16308  0.76258  1.0000
  C   C7        1.0  0.24439  0.89612  0.07832  1.0000
  C   C8        1.0  0.75562  0.10387  0.92167  1.0000
  C   C9        1.0  0.41458  0.79103  0.07990  1.0000
  C   C10       1.0  0.58543  0.20898  0.92009  1.0000
  C   C11       1.0  0.75595  0.79069  0.32048  1.0000
  C   C12       1.0  0.24405  0.20931  0.67952  1.0000
  C   C13       1.0  0.95621  0.79156  0.48759  1.0000
  C   C14       1.0  0.04379  0.20843  0.51241  1.0000
  C   C15       1.0  0.41094  0.94440  0.23951  1.0000
  C   C16       1.0  0.58907  0.05559  0.76049  1.0000
  C   C17       1.0  0.10524  0.68488  0.46496  1.0000
  C   C18       1.0  0.89476  0.31513  0.53504  1.0000
  C   C19       1.0  0.07263  0.63452  0.36916  1.0000
  C   C20       1.0  0.92738  0.36548  0.63084  1.0000
  N   N1        1.0  0.57778  0.76417  0.15637  1.0000
  N   N2        1.0  0.42222  0.23583  0.84362  1.0000
  N   N3        1.0  0.90105  0.68594  0.30008  1.0000
  N   N4        1.0  0.09896  0.31406  0.69992  1.0000
  O   O1        1.0  0.07376  0.70610  0.85037  1.0000
  O   O2        1.0  0.92622  0.29390  0.14965  1.0000
  O   O3        1.0  0.74896  0.57305  0.02475  1.0000
  O   O4        1.0  0.25103  0.42693  0.97525  1.0000
  O   O5        1.0  0.63647  0.71110  0.82489  1.0000
  O   O6        1.0  0.36353  0.28890  0.17511  1.0000
  O   O7        1.0  0.87072  0.49076  0.83457  1.0000
  O   O8        1.0  0.12929  0.50925  0.16543  1.0000
  O   O9        1.0  0.38798  0.56947  0.69749  1.0000
  O   O10       1.0  0.61198  0.43054  0.30252  1.0000
  O   O11       1.0  0.38526  0.84307  0.63320  1.0000
  O   O12       1.0  0.61473  0.15695  0.36681  1.0000
