data_image0
_chemical_formula_structural       Cd2H36C46N4O12
_chemical_formula_sum              "Cd2 H36 C46 N4 O12"
_cell_length_a       6.57987
_cell_length_b       12.3261
_cell_length_c       13.8579
_cell_angle_alpha    111.571
_cell_angle_beta     93.8939
_cell_angle_gamma    102.166

_space_group_name_H-M_alt    "P 1"
_space_group_IT_number       1

loop_
  _space_group_symop_operation_xyz
  'x, y, z'

loop_
  _atom_site_type_symbol
  _atom_site_label
  _atom_site_symmetry_multiplicity
  _atom_site_fract_x
  _atom_site_fract_y
  _atom_site_fract_z
  _atom_site_occupancy
  Cd  Cd1       1.0  0.69308  0.63981  0.10090  1.0000
  Cd  Cd2       1.0  0.30692  0.36020  0.89910  1.0000
  H   H1        1.0  0.51797  0.81658  0.28599  1.0000
  H   H2        1.0  0.48205  0.18342  0.71400  1.0000
  H   H3        1.0  0.05308  0.48447  0.08023  1.0000
  H   H4        1.0  0.94693  0.51554  0.91978  1.0000
  H   H5        1.0  0.34305  0.46625  0.19216  1.0000
  H   H6        1.0  0.65695  0.53375  0.80785  1.0000
  H   H7        1.0  0.91476  0.18221  0.24290  1.0000
  H   H8        1.0  0.08523  0.81780  0.75711  1.0000
  H   H9        1.0  0.62506  0.19777  0.12581  1.0000
  H   H10       1.0  0.37494  0.80224  0.87420  1.0000
  H   H11       1.0  0.59198  0.26500  0.38728  1.0000
  H   H12       1.0  0.40802  0.73500  0.61272  1.0000
  H   H13       1.0  0.60465  0.29139  0.57489  1.0000
  H   H14       1.0  0.39535  0.70861  0.42511  1.0000
  H   H15       1.0  0.04334  0.41877  0.58846  1.0000
  H   H16       1.0  0.95666  0.58122  0.41154  1.0000
  H   H17       1.0  0.03530  0.40024  0.40290  1.0000
  H   H18       1.0  0.96469  0.59975  0.59710  1.0000
  H   H19       1.0  0.83180  0.86819  0.04820  1.0000
  H   H20       1.0  0.16821  0.13181  0.95179  1.0000
  H   H21       1.0  0.14136  0.04675  0.08693  1.0000
  H   H22       1.0  0.85864  0.95324  0.91306  1.0000
  H   H23       1.0  0.47325  0.06419  0.19799  1.0000
  H   H24       1.0  0.52676  0.93580  0.80200  1.0000
  H   H25       1.0  0.16463  0.72957  0.21919  1.0000
  H   H26       1.0  0.83536  0.27042  0.78080  1.0000
  H   H27       1.0  0.83898  0.86812  0.36710  1.0000
  H   H28       1.0  0.16101  0.13188  0.63290  1.0000
  H   H29       1.0  0.11854  0.02189  0.33960  1.0000
  H   H30       1.0  0.88145  0.97811  0.66039  1.0000
  H   H31       1.0  0.07202  0.13508  0.45089  1.0000
  H   H32       1.0  0.92797  0.86492  0.54911  1.0000
  H   H33       1.0  0.22616  0.91567  0.45059  1.0000
  H   H34       1.0  0.77384  0.08433  0.54940  1.0000
  H   H35       1.0  0.38213  0.06607  0.49429  1.0000
  H   H36       1.0  0.61786  0.93393  0.50570  1.0000
  C   C1        1.0  0.64657  0.35173  0.02827  1.0000
  C   C2        1.0  0.35343  0.64827  0.97173  1.0000
  C   C3        1.0  0.82014  0.34141  0.09550  1.0000
  C   C4        1.0  0.17986  0.65859  0.90450  1.0000
  C   C5        1.0  0.02262  0.41694  0.11413  1.0000
  C   C6        1.0  0.97738  0.58305  0.88588  1.0000
  C   C7        1.0  0.18640  0.40674  0.17620  1.0000
  C   C8        1.0  0.81361  0.59326  0.82381  1.0000
  C   C9        1.0  0.14621  0.32226  0.22174  1.0000
  C   C10       1.0  0.85379  0.67774  0.77826  1.0000
  C   C11       1.0  0.94523  0.24592  0.20478  1.0000
  C   C12       1.0  0.05477  0.75409  0.79523  1.0000
  C   C13       1.0  0.78340  0.25572  0.14083  1.0000
  C   C14       1.0  0.21661  0.74428  0.85918  1.0000
  C   C15       1.0  0.31234  0.33009  0.38414  1.0000
  C   C16       1.0  0.68767  0.66991  0.61586  1.0000
  C   C17       1.0  0.47513  0.30109  0.43247  1.0000
  C   C18       1.0  0.52489  0.69892  0.56753  1.0000
  C   C19       1.0  0.47999  0.31463  0.53662  1.0000
  C   C20       1.0  0.52002  0.68537  0.46338  1.0000
  C   C21       1.0  0.32235  0.35516  0.59295  1.0000
  C   C22       1.0  0.67765  0.64484  0.40705  1.0000
  C   C23       1.0  0.16411  0.38682  0.54392  1.0000
  C   C24       1.0  0.83589  0.61317  0.45608  1.0000
  C   C25       1.0  0.15901  0.37581  0.44036  1.0000
  C   C26       1.0  0.84099  0.62419  0.55964  1.0000
  C   C27       1.0  0.31367  0.35866  0.70047  1.0000
  C   C28       1.0  0.68632  0.64134  0.29952  1.0000
  C   C29       1.0  0.98075  0.87977  0.09484  1.0000
  C   C30       1.0  0.01925  0.12023  0.90515  1.0000
  C   C31       1.0  0.15282  0.97750  0.11672  1.0000
  C   C32       1.0  0.84718  0.02250  0.88328  1.0000
  C   C33       1.0  0.33805  0.98775  0.17787  1.0000
  C   C34       1.0  0.66195  0.01225  0.82212  1.0000
  C   C35       1.0  0.34671  0.89781  0.21635  1.0000
  C   C36       1.0  0.65329  0.10219  0.78364  1.0000
  C   C37       1.0  0.16703  0.80110  0.19026  1.0000
  C   C38       1.0  0.83297  0.19890  0.80973  1.0000
  C   C39       1.0  0.69172  0.99286  0.33456  1.0000
  C   C40       1.0  0.30829  0.00715  0.66543  1.0000
  C   C41       1.0  0.84403  0.96473  0.40405  1.0000
  C   C42       1.0  0.15597  0.03527  0.59595  1.0000
  C   C43       1.0  0.06899  0.03887  0.41668  1.0000
  C   C44       1.0  0.93099  0.96113  0.58332  1.0000
  C   C45       1.0  0.22247  0.01121  0.48678  1.0000
  C   C46       1.0  0.77752  0.98879  0.51322  1.0000
  N   N1        1.0  0.98980  0.79331  0.13152  1.0000
  N   N2        1.0  0.01020  0.20669  0.86848  1.0000
  N   N3        1.0  0.52024  0.89808  0.27987  1.0000
  N   N4        1.0  0.47977  0.10192  0.72012  1.0000
  O   O1        1.0  0.67368  0.44237  0.99975  1.0000
  O   O2        1.0  0.32632  0.55763  0.00026  1.0000
  O   O3        1.0  0.47359  0.27101  0.99657  1.0000
  O   O4        1.0  0.52640  0.72901  0.00345  1.0000
  O   O5        1.0  0.46411  0.33248  0.74632  1.0000
  O   O6        1.0  0.53588  0.66752  0.25368  1.0000
  O   O7        1.0  0.15940  0.38508  0.74625  1.0000
  O   O8        1.0  0.84061  0.61493  0.25375  1.0000
  O   O9        1.0  0.31730  0.31343  0.28052  1.0000
  O   O10       1.0  0.68271  0.68657  0.71948  1.0000
  O   O11       1.0  0.71770  0.09344  0.33040  1.0000
  O   O12       1.0  0.28230  0.90656  0.66960  1.0000
