data_image0
_chemical_formula_structural       Ag4H16C20S4N8O12F12
_chemical_formula_sum              "Ag4 H16 C20 S4 N8 O12 F12"
_cell_length_a       8.86042
_cell_length_b       8.86043
_cell_length_c       12.1863
_cell_angle_alpha    88.1701
_cell_angle_beta     88.1702
_cell_angle_gamma    77.8062

_space_group_name_H-M_alt    "P 1"
_space_group_IT_number       1

loop_
  _space_group_symop_operation_xyz
  'x, y, z'

loop_
  _atom_site_type_symbol
  _atom_site_label
  _atom_site_symmetry_multiplicity
  _atom_site_fract_x
  _atom_site_fract_y
  _atom_site_fract_z
  _atom_site_occupancy
  Ag  Ag1       1.0  0.68318  0.81405  0.54159  1.0000
  Ag  Ag2       1.0  0.18594  0.31682  0.95841  1.0000
  Ag  Ag3       1.0  0.31682  0.18594  0.45841  1.0000
  Ag  Ag4       1.0  0.81406  0.68318  0.04159  1.0000
  H   H1        1.0  0.70318  0.47891  0.63329  1.0000
  H   H2        1.0  0.52109  0.29682  0.86672  1.0000
  H   H3        1.0  0.29681  0.52109  0.36671  1.0000
  H   H4        1.0  0.47891  0.70319  0.13328  1.0000
  H   H5        1.0  0.41419  0.74797  0.40586  1.0000
  H   H6        1.0  0.25203  0.58581  0.09414  1.0000
  H   H7        1.0  0.58580  0.25203  0.59414  1.0000
  H   H8        1.0  0.74798  0.41420  0.90586  1.0000
  H   H9        1.0  0.93449  0.82695  0.36623  1.0000
  H   H10       1.0  0.17305  0.06550  0.13377  1.0000
  H   H11       1.0  0.06550  0.17304  0.63378  1.0000
  H   H12       1.0  0.82696  0.93450  0.86622  1.0000
  H   H13       1.0  0.83522  0.04754  0.66437  1.0000
  H   H14       1.0  0.95246  0.16478  0.83563  1.0000
  H   H15       1.0  0.16477  0.95245  0.33563  1.0000
  H   H16       1.0  0.04754  0.83522  0.16436  1.0000
  C   C1        1.0  0.61178  0.48862  0.57400  1.0000
  C   C2        1.0  0.51138  0.38822  0.92601  1.0000
  C   C3        1.0  0.38822  0.51138  0.42600  1.0000
  C   C4        1.0  0.48862  0.61179  0.07400  1.0000
  C   C5        1.0  0.45249  0.63706  0.44840  1.0000
  C   C6        1.0  0.36293  0.54752  0.05160  1.0000
  C   C7        1.0  0.54751  0.36293  0.55159  1.0000
  C   C8        1.0  0.63706  0.45249  0.94841  1.0000
  C   C9        1.0  0.96364  0.90460  0.42592  1.0000
  C   C10       1.0  0.09540  0.03635  0.07408  1.0000
  C   C11       1.0  0.03636  0.09540  0.57408  1.0000
  C   C12       1.0  0.90460  0.96364  0.92592  1.0000
  C   C13       1.0  0.90970  0.02667  0.59102  1.0000
  C   C14       1.0  0.97333  0.09030  0.90897  1.0000
  C   C15       1.0  0.09030  0.97333  0.40898  1.0000
  C   C16       1.0  0.02667  0.90970  0.09102  1.0000
  C   C17       1.0  0.41550  0.88207  0.82969  1.0000
  C   C18       1.0  0.11793  0.58450  0.67031  1.0000
  C   C19       1.0  0.58450  0.11793  0.17031  1.0000
  C   C20       1.0  0.88207  0.41550  0.32969  1.0000
  S   S1        1.0  0.44932  0.04558  0.73769  1.0000
  S   S2        1.0  0.95442  0.55067  0.76231  1.0000
  S   S3        1.0  0.55068  0.95442  0.26231  1.0000
  S   S4        1.0  0.04558  0.44933  0.23769  1.0000
  N   N1        1.0  0.56442  0.62598  0.52203  1.0000
  N   N2        1.0  0.37402  0.43558  0.97797  1.0000
  N   N3        1.0  0.43558  0.37402  0.47797  1.0000
  N   N4        1.0  0.62598  0.56443  0.02203  1.0000
  N   N5        1.0  0.87346  0.93134  0.51717  1.0000
  N   N6        1.0  0.06866  0.12654  0.98283  1.0000
  N   N7        1.0  0.12654  0.06866  0.48284  1.0000
  N   N8        1.0  0.93134  0.87346  0.01716  1.0000
  O   O1        1.0  0.44171  0.98558  0.62747  1.0000
  O   O2        1.0  0.01442  0.55829  0.87253  1.0000
  O   O3        1.0  0.55829  0.01442  0.37253  1.0000
  O   O4        1.0  0.98558  0.44171  0.12747  1.0000
  O   O5        1.0  0.60250  0.06748  0.76582  1.0000
  O   O6        1.0  0.93253  0.39749  0.73418  1.0000
  O   O7        1.0  0.39750  0.93252  0.23418  1.0000
  O   O8        1.0  0.06747  0.60251  0.26582  1.0000
  O   O9        1.0  0.32146  0.17196  0.76630  1.0000
  O   O10       1.0  0.82803  0.67852  0.73371  1.0000
  O   O11       1.0  0.67854  0.82804  0.23371  1.0000
  O   O12       1.0  0.17197  0.32148  0.26629  1.0000
  F   F1        1.0  0.50377  0.74529  0.79846  1.0000
  F   F2        1.0  0.25471  0.49622  0.70154  1.0000
  F   F3        1.0  0.49623  0.25471  0.20154  1.0000
  F   F4        1.0  0.74529  0.50378  0.29846  1.0000
  F   F5        1.0  0.44822  0.90556  0.93509  1.0000
  F   F6        1.0  0.09444  0.55179  0.56491  1.0000
  F   F7        1.0  0.55178  0.09444  0.06491  1.0000
  F   F8        1.0  0.90556  0.44821  0.43509  1.0000
  F   F9        1.0  0.26527  0.87016  0.82804  1.0000
  F   F10       1.0  0.12984  0.73473  0.67197  1.0000
  F   F11       1.0  0.73473  0.12984  0.17196  1.0000
  F   F12       1.0  0.87016  0.26528  0.32803  1.0000
