data_image0
_chemical_formula_structural       Zn4H28C44S4N4O16
_chemical_formula_sum              "Zn4 H28 C44 S4 N4 O16"
_cell_length_a       7.56693
_cell_length_b       9.68437
_cell_length_c       16.3727
_cell_angle_alpha    89.9998
_cell_angle_beta     89.9998
_cell_angle_gamma    97.2184

_space_group_name_H-M_alt    "P 1"
_space_group_IT_number       1

loop_
  _space_group_symop_operation_xyz
  'x, y, z'

loop_
  _atom_site_type_symbol
  _atom_site_label
  _atom_site_symmetry_multiplicity
  _atom_site_fract_x
  _atom_site_fract_y
  _atom_site_fract_z
  _atom_site_occupancy
  Zn  Zn1       1.0  0.84319  0.40057  0.47599  1.0000
  Zn  Zn2       1.0  0.65681  0.09943  0.97599  1.0000
  Zn  Zn3       1.0  0.15681  0.59943  0.52401  1.0000
  Zn  Zn4       1.0  0.34320  0.90057  0.02401  1.0000
  H   H1        1.0  0.46095  0.51630  0.66676  1.0000
  H   H2        1.0  0.03906  0.98370  0.16676  1.0000
  H   H3        1.0  0.53906  0.48369  0.33324  1.0000
  H   H4        1.0  0.96094  0.01631  0.83324  1.0000
  H   H5        1.0  0.21888  0.14599  0.52206  1.0000
  H   H6        1.0  0.28111  0.35401  0.02206  1.0000
  H   H7        1.0  0.78111  0.85402  0.47793  1.0000
  H   H8        1.0  0.71890  0.64598  0.97794  1.0000
  H   H9        1.0  0.23526  0.96801  0.41284  1.0000
  H   H10       1.0  0.26473  0.53199  0.91284  1.0000
  H   H11       1.0  0.76473  0.03200  0.58716  1.0000
  H   H12       1.0  0.73528  0.46800  0.08717  1.0000
  H   H13       1.0  0.34739  0.63030  0.80077  1.0000
  H   H14       1.0  0.15263  0.86970  0.30077  1.0000
  H   H15       1.0  0.65263  0.36969  0.19923  1.0000
  H   H16       1.0  0.84737  0.13031  0.69923  1.0000
  H   H17       1.0  0.48116  0.32842  0.54391  1.0000
  H   H18       1.0  0.01883  0.17158  0.04391  1.0000
  H   H19       1.0  0.51884  0.67158  0.45609  1.0000
  H   H20       1.0  0.98117  0.82842  0.95609  1.0000
  H   H21       1.0  0.76261  0.17186  0.35537  1.0000
  H   H22       1.0  0.73738  0.32814  0.85538  1.0000
  H   H23       1.0  0.23738  0.82814  0.64462  1.0000
  H   H24       1.0  0.26262  0.67187  0.14463  1.0000
  H   H25       1.0  0.51235  0.98395  0.32497  1.0000
  H   H26       1.0  0.98763  0.51605  0.82497  1.0000
  H   H27       1.0  0.48763  0.01605  0.67502  1.0000
  H   H28       1.0  0.01237  0.48395  0.17503  1.0000
  C   C1        1.0  0.71953  0.63570  0.68901  1.0000
  C   C2        1.0  0.78048  0.86430  0.18900  1.0000
  C   C3        1.0  0.28047  0.36429  0.31099  1.0000
  C   C4        1.0  0.21952  0.13570  0.81100  1.0000
  C   C5        1.0  0.82313  0.59571  0.61832  1.0000
  C   C6        1.0  0.67687  0.90430  0.11832  1.0000
  C   C7        1.0  0.17687  0.40430  0.38168  1.0000
  C   C8        1.0  0.32313  0.09570  0.88168  1.0000
  C   C9        1.0  0.54316  0.58845  0.70612  1.0000
  C   C10       1.0  0.95685  0.91155  0.20612  1.0000
  C   C11       1.0  0.45685  0.41154  0.29388  1.0000
  C   C12       1.0  0.04315  0.08846  0.79389  1.0000
  C   C13       1.0  0.33716  0.14774  0.48409  1.0000
  C   C14       1.0  0.16283  0.35226  0.98409  1.0000
  C   C15       1.0  0.66283  0.85227  0.51591  1.0000
  C   C16       1.0  0.83718  0.64773  0.01591  1.0000
  C   C17       1.0  0.58933  0.82871  0.88684  1.0000
  C   C18       1.0  0.91067  0.67129  0.38683  1.0000
  C   C19       1.0  0.41067  0.17129  0.11316  1.0000
  C   C20       1.0  0.08933  0.32871  0.61316  1.0000
  C   C21       1.0  0.61296  0.74212  0.81396  1.0000
  C   C22       1.0  0.88705  0.75789  0.31396  1.0000
  C   C23       1.0  0.38704  0.25788  0.18604  1.0000
  C   C24       1.0  0.11295  0.24212  0.68604  1.0000
  C   C25       1.0  0.34604  0.04996  0.42226  1.0000
  C   C26       1.0  0.15395  0.45004  0.92226  1.0000
  C   C27       1.0  0.65395  0.95004  0.57774  1.0000
  C   C28       1.0  0.84606  0.54996  0.07774  1.0000
  C   C29       1.0  0.48270  0.64891  0.77744  1.0000
  C   C30       1.0  0.01732  0.85109  0.27743  1.0000
  C   C31       1.0  0.51731  0.35108  0.22257  1.0000
  C   C32       1.0  0.98269  0.14892  0.72257  1.0000
  C   C33       1.0  0.48198  0.24904  0.49678  1.0000
  C   C34       1.0  0.01801  0.25096  0.99678  1.0000
  C   C35       1.0  0.51802  0.75097  0.50322  1.0000
  C   C36       1.0  0.98199  0.74903  0.00322  1.0000
  C   C37       1.0  0.63913  0.16157  0.39046  1.0000
  C   C38       1.0  0.86085  0.33843  0.89046  1.0000
  C   C39       1.0  0.36085  0.83843  0.60953  1.0000
  C   C40       1.0  0.13915  0.66157  0.10954  1.0000
  C   C41       1.0  0.49929  0.05778  0.37417  1.0000
  C   C42       1.0  0.00070  0.44222  0.87417  1.0000
  C   C43       1.0  0.50070  0.94222  0.62583  1.0000
  C   C44       1.0  0.99931  0.55778  0.12583  1.0000
  S   S1        1.0  0.80980  0.75611  0.75984  1.0000
  S   S2        1.0  0.69021  0.74389  0.25984  1.0000
  S   S3        1.0  0.19020  0.24390  0.24016  1.0000
  S   S4        1.0  0.30980  0.25610  0.74016  1.0000
  N   N1        1.0  0.63092  0.25490  0.45112  1.0000
  N   N2        1.0  0.86907  0.24509  0.95112  1.0000
  N   N3        1.0  0.36907  0.74509  0.54888  1.0000
  N   N4        1.0  0.13094  0.75490  0.04889  1.0000
  O   O1        1.0  0.74229  0.50523  0.57058  1.0000
  O   O2        1.0  0.75772  0.99478  0.07058  1.0000
  O   O3        1.0  0.25771  0.49477  0.42942  1.0000
  O   O4        1.0  0.24229  0.00523  0.92942  1.0000
  O   O5        1.0  0.45595  0.78823  0.93211  1.0000
  O   O6        1.0  0.04405  0.71177  0.43211  1.0000
  O   O7        1.0  0.54405  0.21177  0.06789  1.0000
  O   O8        1.0  0.95594  0.28823  0.56789  1.0000
  O   O9        1.0  0.70275  0.93620  0.89782  1.0000
  O   O10       1.0  0.79726  0.56380  0.39781  1.0000
  O   O11       1.0  0.29726  0.06379  0.10219  1.0000
  O   O12       1.0  0.20274  0.43621  0.60219  1.0000
  O   O13       1.0  0.98315  0.65471  0.61098  1.0000
  O   O14       1.0  0.51686  0.84529  0.11098  1.0000
  O   O15       1.0  0.01685  0.34529  0.38902  1.0000
  O   O16       1.0  0.48315  0.15470  0.88902  1.0000
