data_image0
_chemical_formula_structural       Zn4P4H36C32N8O12
_chemical_formula_sum              "Zn4 P4 H36 C32 N8 O12"
_cell_length_a       5.15964
_cell_length_b       10.4946
_cell_length_c       17.7676
_cell_angle_alpha    90.0005
_cell_angle_beta     89.9999
_cell_angle_gamma    90.0001

_space_group_name_H-M_alt    "P 1"
_space_group_IT_number       1

loop_
  _space_group_symop_operation_xyz
  'x, y, z'

loop_
  _atom_site_type_symbol
  _atom_site_label
  _atom_site_symmetry_multiplicity
  _atom_site_fract_x
  _atom_site_fract_y
  _atom_site_fract_z
  _atom_site_occupancy
  Zn  Zn1       1.0  0.60819  0.31717  0.40640  1.0000
  Zn  Zn2       1.0  0.89179  0.68284  0.90639  1.0000
  Zn  Zn3       1.0  0.39179  0.81717  0.09361  1.0000
  Zn  Zn4       1.0  0.10821  0.18284  0.59361  1.0000
  P   P1        1.0  0.10785  0.15073  0.40615  1.0000
  P   P2        1.0  0.39213  0.84927  0.90614  1.0000
  P   P3        1.0  0.89213  0.65073  0.09386  1.0000
  P   P4        1.0  0.60786  0.34927  0.59386  1.0000
  H   H1        1.0  0.18258  0.03456  0.37272  1.0000
  H   H2        1.0  0.31738  0.96544  0.87272  1.0000
  H   H3        1.0  0.81738  0.53456  0.12728  1.0000
  H   H4        1.0  0.68261  0.46545  0.62728  1.0000
  H   H5        1.0  0.70065  0.69494  0.22780  1.0000
  H   H6        1.0  0.79934  0.30505  0.72780  1.0000
  H   H7        1.0  0.29935  0.19495  0.27221  1.0000
  H   H8        1.0  0.20066  0.80505  0.77219  1.0000
  H   H9        1.0  0.08007  0.47305  0.47921  1.0000
  H   H10       1.0  0.41991  0.52695  0.97921  1.0000
  H   H11       1.0  0.91993  0.97307  0.02079  1.0000
  H   H12       1.0  0.58010  0.02694  0.52079  1.0000
  H   H13       1.0  0.39633  0.65103  0.49620  1.0000
  H   H14       1.0  0.10366  0.34896  0.99620  1.0000
  H   H15       1.0  0.60369  0.15106  0.00380  1.0000
  H   H16       1.0  0.89635  0.84895  0.50379  1.0000
  H   H17       1.0  0.39960  0.83569  0.41114  1.0000
  H   H18       1.0  0.10041  0.16429  0.91114  1.0000
  H   H19       1.0  0.60043  0.33572  0.08886  1.0000
  H   H20       1.0  0.89959  0.66428  0.58886  1.0000
  H   H21       1.0  0.09147  0.84828  0.30148  1.0000
  H   H22       1.0  0.40857  0.15169  0.80149  1.0000
  H   H23       1.0  0.90857  0.34831  0.19851  1.0000
  H   H24       1.0  0.59143  0.65170  0.69851  1.0000
  H   H25       1.0  0.47100  0.38915  0.21714  1.0000
  H   H26       1.0  0.02899  0.61085  0.71714  1.0000
  H   H27       1.0  0.52899  0.88915  0.28286  1.0000
  H   H28       1.0  0.97102  0.11085  0.78286  1.0000
  H   H29       1.0  0.33092  0.54293  0.20519  1.0000
  H   H30       1.0  0.16905  0.45707  0.70518  1.0000
  H   H31       1.0  0.66905  0.04293  0.29482  1.0000
  H   H32       1.0  0.83096  0.95707  0.79482  1.0000
  H   H33       1.0  0.24364  0.44450  0.28393  1.0000
  H   H34       1.0  0.25635  0.55549  0.78393  1.0000
  H   H35       1.0  0.75635  0.94451  0.21607  1.0000
  H   H36       1.0  0.74366  0.05549  0.71607  1.0000
  C   C1        1.0  0.90968  0.56149  0.38026  1.0000
  C   C2        1.0  0.59031  0.43850  0.88027  1.0000
  C   C3        1.0  0.09033  0.06151  0.11973  1.0000
  C   C4        1.0  0.40970  0.93850  0.61973  1.0000
  C   C5        1.0  0.91642  0.66722  0.33076  1.0000
  C   C6        1.0  0.58358  0.33277  0.83077  1.0000
  C   C7        1.0  0.08360  0.16724  0.16924  1.0000
  C   C8        1.0  0.41642  0.83277  0.66923  1.0000
  C   C9        1.0  0.61399  0.53007  0.29284  1.0000
  C   C10       1.0  0.88599  0.46992  0.79284  1.0000
  C   C11       1.0  0.38600  0.03008  0.20716  1.0000
  C   C12       1.0  0.11402  0.96992  0.70716  1.0000
  C   C13       1.0  0.08255  0.55394  0.44088  1.0000
  C   C14       1.0  0.41742  0.44606  0.94089  1.0000
  C   C15       1.0  0.91745  0.05396  0.05912  1.0000
  C   C16       1.0  0.58258  0.94605  0.55911  1.0000
  C   C17       1.0  0.25742  0.65403  0.45003  1.0000
  C   C18       1.0  0.24257  0.34597  0.95004  1.0000
  C   C19       1.0  0.74259  0.15405  0.04997  1.0000
  C   C20       1.0  0.75744  0.84595  0.54996  1.0000
  C   C21       1.0  0.26057  0.75944  0.40091  1.0000
  C   C22       1.0  0.23944  0.24055  0.90092  1.0000
  C   C23       1.0  0.73945  0.25946  0.09908  1.0000
  C   C24       1.0  0.76056  0.74055  0.59908  1.0000
  C   C25       1.0  0.09006  0.76783  0.34021  1.0000
  C   C26       1.0  0.40996  0.23215  0.84022  1.0000
  C   C27       1.0  0.90997  0.26785  0.15979  1.0000
  C   C28       1.0  0.59004  0.73216  0.65978  1.0000
  C   C29       1.0  0.40257  0.47451  0.24694  1.0000
  C   C30       1.0  0.09741  0.52548  0.74694  1.0000
  C   C31       1.0  0.59741  0.97452  0.25306  1.0000
  C   C32       1.0  0.90260  0.02548  0.75305  1.0000
  N   N1        1.0  0.71857  0.47773  0.35461  1.0000
  N   N2        1.0  0.78141  0.52227  0.85461  1.0000
  N   N3        1.0  0.28142  0.97775  0.14539  1.0000
  N   N4        1.0  0.21860  0.02226  0.64539  1.0000
  N   N5        1.0  0.72806  0.64365  0.27706  1.0000
  N   N6        1.0  0.77194  0.35634  0.77707  1.0000
  N   N7        1.0  0.27195  0.14367  0.22294  1.0000
  N   N8        1.0  0.22807  0.85634  0.72293  1.0000
  O   O1        1.0  0.27358  0.25588  0.36717  1.0000
  O   O2        1.0  0.22639  0.74412  0.86717  1.0000
  O   O3        1.0  0.72640  0.75589  0.13283  1.0000
  O   O4        1.0  0.77360  0.24412  0.63283  1.0000
  O   O5        1.0  0.16962  0.13716  0.48933  1.0000
  O   O6        1.0  0.33038  0.86283  0.98933  1.0000
  O   O7        1.0  0.83037  0.63717  0.01067  1.0000
  O   O8        1.0  0.66961  0.36284  0.51067  1.0000
  O   O9        1.0  0.82075  0.16511  0.38585  1.0000
  O   O10       1.0  0.67922  0.83490  0.88585  1.0000
  O   O11       1.0  0.17922  0.66511  0.11415  1.0000
  O   O12       1.0  0.32077  0.33490  0.61415  1.0000
