data_image0
_chemical_formula_structural       Zn2H20C26N2O12
_chemical_formula_sum              "Zn2 H20 C26 N2 O12"
_cell_length_a       7.71946
_cell_length_b       8.93375
_cell_length_c       9.88335
_cell_angle_alpha    105.452
_cell_angle_beta     95.9967
_cell_angle_gamma    108.91

_space_group_name_H-M_alt    "P 1"
_space_group_IT_number       1

loop_
  _space_group_symop_operation_xyz
  'x, y, z'

loop_
  _atom_site_type_symbol
  _atom_site_label
  _atom_site_symmetry_multiplicity
  _atom_site_fract_x
  _atom_site_fract_y
  _atom_site_fract_z
  _atom_site_occupancy
  Zn  Zn1       1.0  0.94740  0.68685  0.03963  1.0000
  Zn  Zn2       1.0  0.05260  0.31315  0.96037  1.0000
  H   H1        1.0  0.81505  0.85167  0.23663  1.0000
  H   H2        1.0  0.18494  0.14834  0.76337  1.0000
  H   H3        1.0  0.95348  0.83281  0.79971  1.0000
  H   H4        1.0  0.04651  0.16719  0.20029  1.0000
  H   H5        1.0  0.51300  0.24672  0.06314  1.0000
  H   H6        1.0  0.48701  0.75331  0.93688  1.0000
  H   H7        1.0  0.93519  0.38969  0.44381  1.0000
  H   H8        1.0  0.06481  0.61032  0.55621  1.0000
  H   H9        1.0  0.75318  0.76147  0.56102  1.0000
  H   H10       1.0  0.24682  0.23851  0.43897  1.0000
  H   H11       1.0  0.45590  0.93544  0.33564  1.0000
  H   H12       1.0  0.54410  0.06456  0.66436  1.0000
  H   H13       1.0  0.42365  0.29745  0.62090  1.0000
  H   H14       1.0  0.57635  0.70252  0.37908  1.0000
  H   H15       1.0  0.76549  0.88897  0.08863  1.0000
  H   H16       1.0  0.23452  0.11103  0.91137  1.0000
  H   H17       1.0  0.88818  0.20863  0.57661  1.0000
  H   H18       1.0  0.11182  0.79138  0.42339  1.0000
  H   H19       1.0  0.63938  0.38852  0.85493  1.0000
  H   H20       1.0  0.36063  0.61146  0.14506  1.0000
  C   C1        1.0  0.27693  0.96074  0.10164  1.0000
  C   C2        1.0  0.72308  0.03928  0.89835  1.0000
  C   C3        1.0  0.56605  0.22110  0.15749  1.0000
  C   C4        1.0  0.43395  0.77891  0.84251  1.0000
  C   C5        1.0  0.71986  0.67385  0.62119  1.0000
  C   C6        1.0  0.28014  0.32613  0.37880  1.0000
  C   C7        1.0  0.70968  0.15440  0.39917  1.0000
  C   C8        1.0  0.29033  0.84559  0.60082  1.0000
  C   C9        1.0  0.53780  0.04442  0.30953  1.0000
  C   C10       1.0  0.46220  0.95558  0.69046  1.0000
  C   C11       1.0  0.46566  0.07807  0.18978  1.0000
  C   C12       1.0  0.53434  0.92194  0.81022  1.0000
  C   C13       1.0  0.56506  0.52291  0.56897  1.0000
  C   C14       1.0  0.43494  0.47707  0.43102  1.0000
  C   C15       1.0  0.84096  0.49315  0.22404  1.0000
  C   C16       1.0  0.15903  0.50686  0.77597  1.0000
  C   C17       1.0  0.73381  0.33452  0.25072  1.0000
  C   C18       1.0  0.26620  0.66549  0.74929  1.0000
  C   C19       1.0  0.80406  0.30239  0.37171  1.0000
  C   C20       1.0  0.19594  0.69761  0.62829  1.0000
  C   C21       1.0  0.83387  0.71576  0.75412  1.0000
  C   C22       1.0  0.16612  0.28423  0.24587  1.0000
  C   C23       1.0  0.53837  0.41773  0.65450  1.0000
  C   C24       1.0  0.46163  0.58225  0.34550  1.0000
  C   C25       1.0  0.65787  0.46720  0.78621  1.0000
  C   C26       1.0  0.34213  0.53279  0.21379  1.0000
  N   N1        1.0  0.80271  0.61548  0.83652  1.0000
  N   N2        1.0  0.19728  0.38451  0.16348  1.0000
  O   O1        1.0  0.84968  0.47986  0.09136  1.0000
  O   O2        1.0  0.15032  0.52016  0.90866  1.0000
  O   O3        1.0  0.20156  0.98105  0.99173  1.0000
  O   O4        1.0  0.79844  0.01895  0.00827  1.0000
  O   O5        1.0  0.19462  0.83894  0.14749  1.0000
  O   O6        1.0  0.80538  0.16107  0.85252  1.0000
  O   O7        1.0  0.91394  0.62653  0.32785  1.0000
  O   O8        1.0  0.08604  0.37349  0.67216  1.0000
  O   O9        1.0  0.77734  0.11313  0.51105  1.0000
  O   O10       1.0  0.22267  0.88687  0.48895  1.0000
  O   O11       1.0  0.76863  0.79913  0.13353  1.0000
  O   O12       1.0  0.23136  0.20088  0.86647  1.0000
