data_image0
_chemical_formula_structural       Cu4H16C28N28
_chemical_formula_sum              "Cu4 H16 C28 N28"
_cell_length_a       7.94459
_cell_length_b       9.25985
_cell_length_c       12.7239
_cell_angle_alpha    90.0011
_cell_angle_beta     97.368
_cell_angle_gamma    90.0002

_space_group_name_H-M_alt    "P 1"
_space_group_IT_number       1

loop_
  _space_group_symop_operation_xyz
  'x, y, z'

loop_
  _atom_site_type_symbol
  _atom_site_label
  _atom_site_symmetry_multiplicity
  _atom_site_fract_x
  _atom_site_fract_y
  _atom_site_fract_z
  _atom_site_occupancy
  Cu  Cu1       1.0  0.18271  0.34877  0.32605  1.0000
  Cu  Cu2       1.0  0.68272  0.15123  0.82604  1.0000
  Cu  Cu3       1.0  0.81730  0.65123  0.67396  1.0000
  Cu  Cu4       1.0  0.31729  0.84877  0.17396  1.0000
  H   H1        1.0  0.24689  0.63004  0.42736  1.0000
  H   H2        1.0  0.74688  0.86996  0.92736  1.0000
  H   H3        1.0  0.75311  0.36995  0.57264  1.0000
  H   H4        1.0  0.25310  0.13004  0.07265  1.0000
  H   H5        1.0  0.66649  0.17101  0.45279  1.0000
  H   H6        1.0  0.16650  0.32898  0.95279  1.0000
  H   H7        1.0  0.33350  0.82897  0.54721  1.0000
  H   H8        1.0  0.83350  0.67102  0.04722  1.0000
  H   H9        1.0  0.45259  0.13607  0.47264  1.0000
  H   H10       1.0  0.95260  0.36393  0.97264  1.0000
  H   H11       1.0  0.54739  0.86393  0.52736  1.0000
  H   H12       1.0  0.04740  0.63607  0.02736  1.0000
  H   H13       1.0  0.49765  0.19499  0.34694  1.0000
  H   H14       1.0  0.99766  0.30500  0.84694  1.0000
  H   H15       1.0  0.50234  0.80501  0.65306  1.0000
  H   H16       1.0  0.00235  0.69499  0.15306  1.0000
  C   C1        1.0  0.36148  0.57327  0.46067  1.0000
  C   C2        1.0  0.86147  0.92673  0.96067  1.0000
  C   C3        1.0  0.63852  0.42672  0.53933  1.0000
  C   C4        1.0  0.13851  0.07328  0.03934  1.0000
  C   C5        1.0  0.51549  0.35982  0.46670  1.0000
  C   C6        1.0  0.01550  0.14018  0.96671  1.0000
  C   C7        1.0  0.48449  0.64019  0.53329  1.0000
  C   C8        1.0  0.98450  0.85982  0.03330  1.0000
  C   C9        1.0  0.53500  0.20733  0.43257  1.0000
  C   C10       1.0  0.03501  0.29267  0.93258  1.0000
  C   C11       1.0  0.46499  0.79267  0.56743  1.0000
  C   C12       1.0  0.96499  0.70733  0.06743  1.0000
  C   C13       1.0  0.08151  0.17771  0.51999  1.0000
  C   C14       1.0  0.58150  0.32230  0.01999  1.0000
  C   C15       1.0  0.91851  0.82229  0.48001  1.0000
  C   C16       1.0  0.41850  0.67771  0.98000  1.0000
  C   C17       1.0  0.89540  0.16734  0.21071  1.0000
  C   C18       1.0  0.39543  0.33265  0.71071  1.0000
  C   C19       1.0  0.10458  0.83266  0.78929  1.0000
  C   C20       1.0  0.60458  0.66734  0.28929  1.0000
  C   C21       1.0  0.63030  0.05622  0.17540  1.0000
  C   C22       1.0  0.13032  0.44378  0.67540  1.0000
  C   C23       1.0  0.36968  0.94379  0.82460  1.0000
  C   C24       1.0  0.86970  0.55622  0.32460  1.0000
  C   C25       1.0  0.92788  0.11431  0.65652  1.0000
  C   C26       1.0  0.42787  0.38568  0.15651  1.0000
  C   C27       1.0  0.07214  0.88569  0.34349  1.0000
  C   C28       1.0  0.57213  0.61431  0.84348  1.0000
  N   N1        1.0  0.37714  0.43712  0.42894  1.0000
  N   N2        1.0  0.87715  0.06289  0.92894  1.0000
  N   N3        1.0  0.62284  0.56289  0.57106  1.0000
  N   N4        1.0  0.12285  0.93712  0.07106  1.0000
  N   N5        1.0  0.12384  0.23322  0.44445  1.0000
  N   N6        1.0  0.62384  0.26679  0.94445  1.0000
  N   N7        1.0  0.87617  0.76678  0.55555  1.0000
  N   N8        1.0  0.37616  0.73322  0.05554  1.0000
  N   N9        1.0  0.00418  0.25443  0.22747  1.0000
  N   N10       1.0  0.50419  0.24556  0.72747  1.0000
  N   N11       1.0  0.99583  0.74557  0.77253  1.0000
  N   N12       1.0  0.49581  0.75444  0.27252  1.0000
  N   N13       1.0  0.79325  0.06322  0.18306  1.0000
  N   N14       1.0  0.29327  0.43679  0.68305  1.0000
  N   N15       1.0  0.20674  0.93679  0.81695  1.0000
  N   N16       1.0  0.70673  0.56321  0.31695  1.0000
  N   N17       1.0  0.48231  0.03589  0.16412  1.0000
  N   N18       1.0  0.98231  0.46411  0.66413  1.0000
  N   N19       1.0  0.51768  0.96412  0.83587  1.0000
  N   N20       1.0  0.01769  0.53589  0.33587  1.0000
  N   N21       1.0  0.81800  0.10894  0.71038  1.0000
  N   N22       1.0  0.31799  0.39105  0.21037  1.0000
  N   N23       1.0  0.18202  0.89106  0.28962  1.0000
  N   N24       1.0  0.68202  0.60893  0.78962  1.0000
  N   N25       1.0  0.05425  0.10639  0.60290  1.0000
  N   N26       1.0  0.55422  0.39360  0.10289  1.0000
  N   N27       1.0  0.94578  0.89361  0.39711  1.0000
  N   N28       1.0  0.44577  0.60641  0.89709  1.0000
