data_image0
_chemical_formula_structural       Cd2H10C10N6Cl4O4
_chemical_formula_sum              "Cd2 H10 C10 N6 Cl4 O4"
_cell_length_a       6.98449
_cell_length_b       7.59331
_cell_length_c       9.79087
_cell_angle_alpha    100.668
_cell_angle_beta     97.8562
_cell_angle_gamma    114.582

_space_group_name_H-M_alt    "P 1"
_space_group_IT_number       1

loop_
  _space_group_symop_operation_xyz
  'x, y, z'

loop_
  _atom_site_type_symbol
  _atom_site_label
  _atom_site_symmetry_multiplicity
  _atom_site_fract_x
  _atom_site_fract_y
  _atom_site_fract_z
  _atom_site_occupancy
  Cd  Cd1       1.0  0.73840  0.51504  0.92622  1.0000
  Cd  Cd2       1.0  0.26162  0.48497  0.07379  1.0000
  H   H1        1.0  0.92939  0.65813  0.30678  1.0000
  H   H2        1.0  0.07061  0.34186  0.69322  1.0000
  H   H3        1.0  0.71393  0.46774  0.35566  1.0000
  H   H4        1.0  0.28607  0.53225  0.64434  1.0000
  H   H5        1.0  0.35634  0.09531  0.74102  1.0000
  H   H6        1.0  0.64365  0.90470  0.25897  1.0000
  H   H7        1.0  0.20220  0.92799  0.50337  1.0000
  H   H8        1.0  0.79779  0.07200  0.49662  1.0000
  H   H9        1.0  0.17136  0.93601  0.92711  1.0000
  H   H10       1.0  0.82864  0.06400  0.07289  1.0000
  C   C1        1.0  0.20684  0.95603  0.71529  1.0000
  C   C2        1.0  0.79315  0.04397  0.28471  1.0000
  C   C3        1.0  0.10452  0.86894  0.81260  1.0000
  C   C4        1.0  0.89548  0.13107  0.18739  1.0000
  C   C5        1.0  0.93191  0.68686  0.52261  1.0000
  C   C6        1.0  0.06808  0.31314  0.47738  1.0000
  C   C7        1.0  0.83148  0.60200  0.62986  1.0000
  C   C8        1.0  0.16852  0.39801  0.37014  1.0000
  C   C9        1.0  0.62929  0.39997  0.58911  1.0000
  C   C10       1.0  0.37071  0.60004  0.41090  1.0000
  N   N1        1.0  0.91985  0.69406  0.76717  1.0000
  N   N2        1.0  0.08015  0.30594  0.23283  1.0000
  N   N3        1.0  0.85695  0.59919  0.38399  1.0000
  N   N4        1.0  0.14305  0.40079  0.61601  1.0000
  N   N5        1.0  0.11756  0.86505  0.57368  1.0000
  N   N6        1.0  0.88243  0.13495  0.42631  1.0000
  Cl  Cl1       1.0  0.07450  0.74450  0.13604  1.0000
  Cl  Cl2       1.0  0.92552  0.25551  0.86396  1.0000
  Cl  Cl3       1.0  0.50315  0.29238  0.06546  1.0000
  Cl  Cl4       1.0  0.49685  0.70762  0.93454  1.0000
  O   O1        1.0  0.55103  0.33967  0.69117  1.0000
  O   O2        1.0  0.44897  0.66033  0.30885  1.0000
  O   O3        1.0  0.55460  0.30452  0.45840  1.0000
  O   O4        1.0  0.44540  0.69548  0.54161  1.0000
