data_image0
_chemical_formula_structural       Ag4H18C18S4N2O14F12
_chemical_formula_sum              "Ag4 H18 C18 S4 N2 O14 F12"
_cell_length_a       8.33531
_cell_length_b       9.77748
_cell_length_c       11.6216
_cell_angle_alpha    79.0749
_cell_angle_beta     78.5429
_cell_angle_gamma    68.6676

_space_group_name_H-M_alt    "P 1"
_space_group_IT_number       1

loop_
  _space_group_symop_operation_xyz
  'x, y, z'

loop_
  _atom_site_type_symbol
  _atom_site_label
  _atom_site_symmetry_multiplicity
  _atom_site_fract_x
  _atom_site_fract_y
  _atom_site_fract_z
  _atom_site_occupancy
  Ag  Ag1       1.0  0.37127  0.76595  0.01988  1.0000
  Ag  Ag2       1.0  0.62873  0.23405  0.98012  1.0000
  Ag  Ag3       1.0  0.85921  0.75917  0.02064  1.0000
  Ag  Ag4       1.0  0.14079  0.24083  0.97936  1.0000
  H   H1        1.0  0.30405  0.49577  0.16846  1.0000
  H   H2        1.0  0.69595  0.50423  0.83153  1.0000
  H   H3        1.0  0.09560  0.48335  0.18261  1.0000
  H   H4        1.0  0.90440  0.51665  0.81739  1.0000
  H   H5        1.0  0.22585  0.39603  0.29838  1.0000
  H   H6        1.0  0.77415  0.60397  0.70162  1.0000
  H   H7        1.0  0.13392  0.52538  0.46890  1.0000
  H   H8        1.0  0.86608  0.47462  0.53110  1.0000
  H   H9        1.0  0.99818  0.76351  0.55751  1.0000
  H   H10       1.0  0.00182  0.23649  0.44249  1.0000
  H   H11       1.0  0.91211  0.00223  0.42076  1.0000
  H   H12       1.0  0.08789  0.99777  0.57924  1.0000
  H   H13       1.0  0.85059  0.03455  0.12828  1.0000
  H   H14       1.0  0.14941  0.96544  0.87172  1.0000
  H   H15       1.0  0.06622  0.03238  0.11369  1.0000
  H   H16       1.0  0.93378  0.96762  0.88631  1.0000
  H   H17       1.0  0.90454  0.12985  0.22377  1.0000
  H   H18       1.0  0.09546  0.87015  0.77623  1.0000
  C   C1        1.0  0.18844  0.49389  0.23261  1.0000
  C   C2        1.0  0.81157  0.50611  0.76739  1.0000
  C   C3        1.0  0.11286  0.62968  0.29172  1.0000
  C   C4        1.0  0.88714  0.37032  0.70828  1.0000
  C   C5        1.0  0.09100  0.63104  0.41330  1.0000
  C   C6        1.0  0.90900  0.36896  0.58670  1.0000
  C   C7        1.0  0.01754  0.76353  0.46205  1.0000
  C   C8        1.0  0.98246  0.23647  0.53795  1.0000
  C   C9        1.0  0.96981  0.89596  0.38674  1.0000
  C   C10       1.0  0.03019  0.10404  0.61326  1.0000
  C   C11       1.0  0.99373  0.89605  0.26501  1.0000
  C   C12       1.0  0.00627  0.10395  0.73499  1.0000
  C   C13       1.0  0.95058  0.03147  0.17856  1.0000
  C   C14       1.0  0.04942  0.96853  0.82144  1.0000
  C   C15       1.0  0.47496  0.00569  0.32820  1.0000
  C   C16       1.0  0.52504  0.99431  0.67180  1.0000
  C   C17       1.0  0.33806  0.51067  0.70026  1.0000
  C   C18       1.0  0.66194  0.48933  0.29975  1.0000
  S   S1        1.0  0.43859  0.00833  0.17426  1.0000
  S   S2        1.0  0.56141  0.99167  0.82574  1.0000
  S   S3        1.0  0.27981  0.53784  0.86002  1.0000
  S   S4        1.0  0.72019  0.46216  0.13998  1.0000
  N   N1        1.0  0.06209  0.76282  0.22122  1.0000
  N   N2        1.0  0.93791  0.23718  0.77878  1.0000
  O   O1        1.0  0.08598  0.76283  0.10357  1.0000
  O   O2        1.0  0.91402  0.23717  0.89643  1.0000
  O   O3        1.0  0.37874  0.88288  0.18541  1.0000
  O   O4        1.0  0.62126  0.11712  0.81459  1.0000
  O   O5        1.0  0.30992  0.15474  0.14894  1.0000
  O   O6        1.0  0.69008  0.84526  0.85106  1.0000
  O   O7        1.0  0.61164  0.98879  0.10399  1.0000
  O   O8        1.0  0.38836  0.01121  0.89601  1.0000
  O   O9        1.0  0.33234  0.38674  0.92412  1.0000
  O   O10       1.0  0.66766  0.61326  0.07588  1.0000
  O   O11       1.0  0.38643  0.62329  0.87122  1.0000
  O   O12       1.0  0.61357  0.37671  0.12878  1.0000
  O   O13       1.0  0.09241  0.61419  0.87172  1.0000
  O   O14       1.0  0.90759  0.38581  0.12828  1.0000
  F   F1        1.0  0.53561  0.11506  0.33391  1.0000
  F   F2        1.0  0.46439  0.88494  0.66609  1.0000
  F   F3        1.0  0.32313  0.02598  0.40301  1.0000
  F   F4        1.0  0.67687  0.97402  0.59699  1.0000
  F   F5        1.0  0.59125  0.87420  0.36587  1.0000
  F   F6        1.0  0.40875  0.12581  0.63414  1.0000
  F   F7        1.0  0.30366  0.64423  0.63176  1.0000
  F   F8        1.0  0.69634  0.35577  0.36824  1.0000
  F   F9        1.0  0.50809  0.43197  0.67333  1.0000
  F   F10       1.0  0.49191  0.56803  0.32667  1.0000
  F   F11       1.0  0.24229  0.43788  0.67260  1.0000
  F   F12       1.0  0.75771  0.56212  0.32740  1.0000
