data_image0
_chemical_formula_structural       Tl4B4H24C16N24
_chemical_formula_sum              "Tl4 B4 H24 C16 N24"
_cell_length_a       5.98381
_cell_length_b       7.76779
_cell_length_c       17.9542
_cell_angle_alpha    89.9992
_cell_angle_beta     89.9998
_cell_angle_gamma    90.0003

_space_group_name_H-M_alt    "P 1"
_space_group_IT_number       1

loop_
  _space_group_symop_operation_xyz
  'x, y, z'

loop_
  _atom_site_type_symbol
  _atom_site_label
  _atom_site_symmetry_multiplicity
  _atom_site_fract_x
  _atom_site_fract_y
  _atom_site_fract_z
  _atom_site_occupancy
  Tl  Tl1       1.0  0.51265  0.30474  0.17960  1.0000
  Tl  Tl2       1.0  0.01265  0.19527  0.82040  1.0000
  Tl  Tl3       1.0  0.48736  0.80474  0.32040  1.0000
  Tl  Tl4       1.0  0.98735  0.69526  0.67960  1.0000
  B   B1        1.0  0.28848  0.32067  0.39331  1.0000
  B   B2        1.0  0.78848  0.17933  0.60670  1.0000
  B   B3        1.0  0.71154  0.82068  0.10669  1.0000
  B   B4        1.0  0.21154  0.67932  0.89331  1.0000
  H   H1        1.0  0.98709  0.59837  0.18870  1.0000
  H   H2        1.0  0.48710  0.90162  0.81130  1.0000
  H   H3        1.0  0.01291  0.09838  0.31131  1.0000
  H   H4        1.0  0.51290  0.40163  0.68869  1.0000
  H   H5        1.0  0.83149  0.46445  0.40902  1.0000
  H   H6        1.0  0.33148  0.03555  0.59099  1.0000
  H   H7        1.0  0.16851  0.96447  0.09098  1.0000
  H   H8        1.0  0.66853  0.53554  0.90901  1.0000
  H   H9        1.0  0.54587  0.75373  0.54758  1.0000
  H   H10       1.0  0.04587  0.74627  0.45242  1.0000
  H   H11       1.0  0.45412  0.25374  0.95241  1.0000
  H   H12       1.0  0.95410  0.24627  0.04758  1.0000
  H   H13       1.0  0.11494  0.32860  0.54508  1.0000
  H   H14       1.0  0.61494  0.17139  0.45492  1.0000
  H   H15       1.0  0.88507  0.82861  0.95492  1.0000
  H   H16       1.0  0.38507  0.67139  0.04508  1.0000
  H   H17       1.0  0.45898  0.29392  0.35864  1.0000
  H   H18       1.0  0.95898  0.20608  0.64136  1.0000
  H   H19       1.0  0.54102  0.79392  0.14136  1.0000
  H   H20       1.0  0.04103  0.70608  0.85864  1.0000
  H   H21       1.0  0.19975  0.18915  0.41540  1.0000
  H   H22       1.0  0.69974  0.31085  0.58461  1.0000
  H   H23       1.0  0.80027  0.68916  0.08461  1.0000
  H   H24       1.0  0.30026  0.81084  0.91539  1.0000
  C   C1        1.0  0.99771  0.54939  0.24517  1.0000
  C   C2        1.0  0.49771  0.95061  0.75483  1.0000
  C   C3        1.0  0.00228  0.04939  0.25483  1.0000
  C   C4        1.0  0.50228  0.45061  0.74517  1.0000
  C   C5        1.0  0.91736  0.47968  0.35614  1.0000
  C   C6        1.0  0.41737  0.02032  0.64386  1.0000
  C   C7        1.0  0.08263  0.97970  0.14386  1.0000
  C   C8        1.0  0.58265  0.52031  0.85614  1.0000
  C   C9        1.0  0.45411  0.64034  0.52994  1.0000
  C   C10       1.0  0.95411  0.85967  0.47006  1.0000
  C   C11       1.0  0.54589  0.14033  0.97005  1.0000
  C   C12       1.0  0.04588  0.35966  0.02994  1.0000
  C   C13       1.0  0.23622  0.42639  0.53001  1.0000
  C   C14       1.0  0.73621  0.07361  0.46999  1.0000
  C   C15       1.0  0.76379  0.92640  0.96999  1.0000
  C   C16       1.0  0.26377  0.57359  0.03001  1.0000
  N   N1        1.0  0.12478  0.42143  0.34161  1.0000
  N   N2        1.0  0.62478  0.07857  0.65839  1.0000
  N   N3        1.0  0.87522  0.92144  0.15839  1.0000
  N   N4        1.0  0.37522  0.57857  0.84161  1.0000
  N   N5        1.0  0.17774  0.46637  0.27003  1.0000
  N   N6        1.0  0.67774  0.03363  0.72998  1.0000
  N   N7        1.0  0.82225  0.96637  0.22997  1.0000
  N   N8        1.0  0.32225  0.53363  0.77003  1.0000
  N   N9        1.0  0.83170  0.56163  0.29688  1.0000
  N   N10       1.0  0.33170  0.93837  0.70312  1.0000
  N   N11       1.0  0.16828  0.06165  0.20313  1.0000
  N   N12       1.0  0.66829  0.43836  0.79687  1.0000
  N   N13       1.0  0.33649  0.43308  0.46293  1.0000
  N   N14       1.0  0.83648  0.06693  0.53707  1.0000
  N   N15       1.0  0.66352  0.93308  0.03707  1.0000
  N   N16       1.0  0.16352  0.56692  0.96293  1.0000
  N   N17       1.0  0.47847  0.57182  0.46230  1.0000
  N   N18       1.0  0.97847  0.92819  0.53770  1.0000
  N   N19       1.0  0.52154  0.07182  0.03769  1.0000
  N   N20       1.0  0.02153  0.42818  0.96230  1.0000
  N   N21       1.0  0.30531  0.55512  0.57406  1.0000
  N   N22       1.0  0.80531  0.94488  0.42594  1.0000
  N   N23       1.0  0.69469  0.05512  0.92593  1.0000
  N   N24       1.0  0.19468  0.44488  0.07406  1.0000
