data_image0
_chemical_formula_structural       Mn2H28C20N12Cl4
_chemical_formula_sum              "Mn2 H28 C20 N12 Cl4"
_cell_length_a       3.70697
_cell_length_b       11.6912
_cell_length_c       15.7801
_cell_angle_alpha    80.5049
_cell_angle_beta     83.2132
_cell_angle_gamma    80.605

_space_group_name_H-M_alt    "P 1"
_space_group_IT_number       1

loop_
  _space_group_symop_operation_xyz
  'x, y, z'

loop_
  _atom_site_type_symbol
  _atom_site_label
  _atom_site_symmetry_multiplicity
  _atom_site_fract_x
  _atom_site_fract_y
  _atom_site_fract_z
  _atom_site_occupancy
  Mn  Mn1       1.0  0.89808  0.24973  0.74985  1.0000
  Mn  Mn2       1.0  0.10191  0.75027  0.25015  1.0000
  H   H1        1.0  0.12029  0.97467  0.57203  1.0000
  H   H2        1.0  0.66686  0.52476  0.92786  1.0000
  H   H3        1.0  0.87974  0.02533  0.42797  1.0000
  H   H4        1.0  0.33311  0.47524  0.07214  1.0000
  H   H5        1.0  0.20783  0.04092  0.66068  1.0000
  H   H6        1.0  0.90811  0.45815  0.83903  1.0000
  H   H7        1.0  0.79220  0.95908  0.33932  1.0000
  H   H8        1.0  0.09187  0.54185  0.16096  1.0000
  H   H9        1.0  0.70490  0.45332  0.43548  1.0000
  H   H10       1.0  0.58584  0.04692  0.06372  1.0000
  H   H11       1.0  0.29511  0.54669  0.56453  1.0000
  H   H12       1.0  0.41418  0.95308  0.93629  1.0000
  H   H13       1.0  0.85656  0.42859  0.59003  1.0000
  H   H14       1.0  0.86850  0.07106  0.90931  1.0000
  H   H15       1.0  0.14345  0.57141  0.40997  1.0000
  H   H16       1.0  0.13149  0.92894  0.09069  1.0000
  H   H17       1.0  0.52044  0.35632  0.32393  1.0000
  H   H18       1.0  0.20042  0.14479  0.17613  1.0000
  H   H19       1.0  0.47956  0.64368  0.67607  1.0000
  H   H20       1.0  0.79957  0.85521  0.82387  1.0000
  H   H21       1.0  0.44018  0.20699  0.35509  1.0000
  H   H22       1.0  0.00178  0.29465  0.14510  1.0000
  H   H23       1.0  0.55983  0.79301  0.64491  1.0000
  H   H24       1.0  0.99821  0.70535  0.85490  1.0000
  H   H25       1.0  0.87464  0.23769  0.30675  1.0000
  H   H26       1.0  0.42021  0.26248  0.19310  1.0000
  H   H27       1.0  0.12537  0.76232  0.69325  1.0000
  H   H28       1.0  0.57977  0.73753  0.80690  1.0000
  C   C1        1.0  0.96793  0.15252  0.56368  1.0000
  C   C2        1.0  0.68380  0.34712  0.93622  1.0000
  C   C3        1.0  0.03210  0.84747  0.43632  1.0000
  C   C4        1.0  0.31618  0.65288  0.06378  1.0000
  C   C5        1.0  0.76137  0.26474  0.43872  1.0000
  C   C6        1.0  0.46363  0.23560  0.06113  1.0000
  C   C7        1.0  0.23866  0.73526  0.56128  1.0000
  C   C8        1.0  0.53635  0.76440  0.93887  1.0000
  C   C9        1.0  0.77274  0.36718  0.47286  1.0000
  C   C10       1.0  0.60764  0.13292  0.02659  1.0000
  C   C11       1.0  0.22727  0.63281  0.52714  1.0000
  C   C12       1.0  0.39236  0.86708  0.97341  1.0000
  C   C13       1.0  0.86040  0.35314  0.55733  1.0000
  C   C14       1.0  0.76615  0.14662  0.94217  1.0000
  C   C15       1.0  0.13962  0.64685  0.44268  1.0000
  C   C16       1.0  0.23384  0.85338  0.05783  1.0000
  C   C17       1.0  0.63991  0.26776  0.35110  1.0000
  C   C18       1.0  0.25864  0.23310  0.14891  1.0000
  C   C19       1.0  0.36010  0.73224  0.64891  1.0000
  C   C20       1.0  0.74135  0.76691  0.85109  1.0000
  N   N1        1.0  0.94536  0.24796  0.60517  1.0000
  N   N2        1.0  0.79651  0.25162  0.89459  1.0000
  N   N3        1.0  0.05465  0.75204  0.39483  1.0000
  N   N4        1.0  0.20348  0.74838  0.10542  1.0000
  N   N5        1.0  0.86231  0.15898  0.48321  1.0000
  N   N6        1.0  0.50568  0.34109  0.01687  1.0000
  N   N7        1.0  0.13771  0.84102  0.51679  1.0000
  N   N8        1.0  0.49430  0.65891  0.98313  1.0000
  N   N9        1.0  0.09744  0.04671  0.60368  1.0000
  N   N10       1.0  0.74731  0.45267  0.89618  1.0000
  N   N11       1.0  0.90258  0.95329  0.39632  1.0000
  N   N12       1.0  0.25267  0.54733  0.10382  1.0000
  Cl  Cl1       1.0  0.31626  0.40421  0.72782  1.0000
  Cl  Cl2       1.0  0.45173  0.09517  0.77175  1.0000
  Cl  Cl3       1.0  0.68373  0.59579  0.27218  1.0000
  Cl  Cl4       1.0  0.54827  0.90482  0.22825  1.0000
