data_image0
_chemical_formula_structural       Tb4H32C24S6O28
_chemical_formula_sum              "Tb4 H32 C24 S6 O28"
_cell_length_a       7.93794
_cell_length_b       10.5178
_cell_length_c       14.1588
_cell_angle_alpha    71.2482
_cell_angle_beta     75.9925
_cell_angle_gamma    77.404

_space_group_name_H-M_alt    "P 1"
_space_group_IT_number       1

loop_
  _space_group_symop_operation_xyz
  'x, y, z'

loop_
  _atom_site_type_symbol
  _atom_site_label
  _atom_site_symmetry_multiplicity
  _atom_site_fract_x
  _atom_site_fract_y
  _atom_site_fract_z
  _atom_site_occupancy
  Tb  Tb1       1.0  0.91020  0.40733  0.64134  1.0000
  Tb  Tb2       1.0  0.08980  0.59267  0.35866  1.0000
  Tb  Tb3       1.0  0.49337  0.19661  0.90297  1.0000
  Tb  Tb4       1.0  0.50663  0.80339  0.09703  1.0000
  H   H1        1.0  0.51472  0.27260  0.67534  1.0000
  H   H2        1.0  0.48528  0.72740  0.32466  1.0000
  H   H3        1.0  0.31146  0.26852  0.72906  1.0000
  H   H4        1.0  0.68853  0.73148  0.27095  1.0000
  H   H5        1.0  0.31339  0.10279  0.11176  1.0000
  H   H6        1.0  0.68661  0.89721  0.88824  1.0000
  H   H7        1.0  0.21453  0.23928  0.05232  1.0000
  H   H8        1.0  0.78547  0.76072  0.94768  1.0000
  H   H9        1.0  0.02161  0.52961  0.91027  1.0000
  H   H10       1.0  0.97840  0.47039  0.08972  1.0000
  H   H11       1.0  0.84778  0.43433  0.93691  1.0000
  H   H12       1.0  0.15222  0.56568  0.06309  1.0000
  H   H13       1.0  0.58729  0.63555  0.88428  1.0000
  H   H14       1.0  0.41272  0.36445  0.11572  1.0000
  H   H15       1.0  0.56711  0.67235  0.75495  1.0000
  H   H16       1.0  0.43289  0.32765  0.24505  1.0000
  H   H17       1.0  0.25419  0.01822  0.79302  1.0000
  H   H18       1.0  0.74581  0.98178  0.20698  1.0000
  H   H19       1.0  0.06549  0.04734  0.88414  1.0000
  H   H20       1.0  0.93450  0.95266  0.11586  1.0000
  H   H21       1.0  0.08009  0.97088  0.67026  1.0000
  H   H22       1.0  0.91991  0.02912  0.32974  1.0000
  H   H23       1.0  0.90465  0.87226  0.72456  1.0000
  H   H24       1.0  0.09535  0.12774  0.27544  1.0000
  H   H25       1.0  0.77146  0.41407  0.32210  1.0000
  H   H26       1.0  0.22854  0.58593  0.67790  1.0000
  H   H27       1.0  0.55600  0.45288  0.39048  1.0000
  H   H28       1.0  0.44400  0.54712  0.60952  1.0000
  H   H29       1.0  0.40632  0.09932  0.49087  1.0000
  H   H30       1.0  0.59368  0.90069  0.50913  1.0000
  H   H31       1.0  0.48743  0.15735  0.57288  1.0000
  H   H32       1.0  0.51257  0.84265  0.42712  1.0000
  C   C1        1.0  0.08532  0.36231  0.84696  1.0000
  C   C2        1.0  0.91467  0.63769  0.15304  1.0000
  C   C3        1.0  0.95410  0.47819  0.87746  1.0000
  C   C4        1.0  0.04590  0.52182  0.12254  1.0000
  C   C5        1.0  0.57928  0.46296  0.83579  1.0000
  C   C6        1.0  0.42072  0.53704  0.16421  1.0000
  C   C7        1.0  0.63140  0.59978  0.81642  1.0000
  C   C8        1.0  0.36860  0.40022  0.18358  1.0000
  C   C9        1.0  0.27807  0.91457  0.94679  1.0000
  C   C10       1.0  0.72193  0.08543  0.05321  1.0000
  C   C11       1.0  0.17095  0.96785  0.86368  1.0000
  C   C12       1.0  0.82905  0.03215  0.13632  1.0000
  C   C13       1.0  0.85758  0.06645  0.75671  1.0000
  C   C14       1.0  0.14242  0.93355  0.24329  1.0000
  C   C15       1.0  0.97879  0.94019  0.73743  1.0000
  C   C16       1.0  0.02121  0.05981  0.26257  1.0000
  C   C17       1.0  0.75681  0.38358  0.48078  1.0000
  C   C18       1.0  0.24319  0.61642  0.51922  1.0000
  C   C19       1.0  0.67995  0.38166  0.39363  1.0000
  C   C20       1.0  0.32005  0.61834  0.60637  1.0000
  C   C21       1.0  0.29396  0.30101  0.49432  1.0000
  C   C22       1.0  0.70604  0.69899  0.50568  1.0000
  C   C23       1.0  0.45133  0.18729  0.49790  1.0000
  C   C24       1.0  0.54867  0.81271  0.50209  1.0000
  S   S1        1.0  0.86389  0.59977  0.77109  1.0000
  S   S2        1.0  0.13611  0.40023  0.22890  1.0000
  S   S3        1.0  0.08013  0.83599  0.84483  1.0000
  S   S4        1.0  0.91987  0.16401  0.15517  1.0000
  S   S5        1.0  0.63891  0.21712  0.39659  1.0000
  S   S6        1.0  0.36109  0.78288  0.60341  1.0000
  O   O1        1.0  0.09438  0.34482  0.76044  1.0000
  O   O2        1.0  0.90561  0.65517  0.23956  1.0000
  O   O3        1.0  0.18311  0.29005  0.90847  1.0000
  O   O4        1.0  0.81689  0.70995  0.09153  1.0000
  O   O5        1.0  0.67093  0.37934  0.78593  1.0000
  O   O6        1.0  0.32907  0.62066  0.21407  1.0000
  O   O7        1.0  0.44558  0.43034  0.90202  1.0000
  O   O8        1.0  0.55442  0.56967  0.09798  1.0000
  O   O9        1.0  0.89848  0.17905  0.70114  1.0000
  O   O10       1.0  0.10152  0.82095  0.29886  1.0000
  O   O11       1.0  0.72290  0.05209  0.82863  1.0000
  O   O12       1.0  0.27710  0.94791  0.17137  1.0000
  O   O13       1.0  0.37425  0.99435  0.95303  1.0000
  O   O14       1.0  0.62574  0.00565  0.04697  1.0000
  O   O15       1.0  0.27468  0.79756  0.00879  1.0000
  O   O16       1.0  0.72532  0.20244  0.99122  1.0000
  O   O17       1.0  0.67462  0.34987  0.57161  1.0000
  O   O18       1.0  0.32538  0.65013  0.42839  1.0000
  O   O19       1.0  0.90644  0.42433  0.46164  1.0000
  O   O20       1.0  0.09355  0.57566  0.53836  1.0000
  O   O21       1.0  0.18735  0.29325  0.57748  1.0000
  O   O22       1.0  0.81264  0.70675  0.42252  1.0000
  O   O23       1.0  0.28111  0.39234  0.41084  1.0000
  O   O24       1.0  0.71889  0.60766  0.58916  1.0000
  O   O25       1.0  0.43508  0.23224  0.73830  1.0000
  O   O26       1.0  0.56492  0.76776  0.26170  1.0000
  O   O27       1.0  0.33160  0.19722  0.06813  1.0000
  O   O28       1.0  0.66840  0.80278  0.93187  1.0000
