data_image0
_chemical_formula_structural       Zn2H26C46N12O8
_chemical_formula_sum              "Zn2 H26 C46 N12 O8"
_cell_length_a       9.76164
_cell_length_b       10.6624
_cell_length_c       11.6012
_cell_angle_alpha    104.212
_cell_angle_beta     105.908
_cell_angle_gamma    112.554

_space_group_name_H-M_alt    "P 1"
_space_group_IT_number       1

loop_
  _space_group_symop_operation_xyz
  'x, y, z'

loop_
  _atom_site_type_symbol
  _atom_site_label
  _atom_site_symmetry_multiplicity
  _atom_site_fract_x
  _atom_site_fract_y
  _atom_site_fract_z
  _atom_site_occupancy
  Zn  Zn1       1.0  0.38510  0.24193  0.49519  1.0000
  Zn  Zn2       1.0  0.61490  0.75807  0.50481  1.0000
  H   H1        1.0  0.73717  0.12032  0.80897  1.0000
  H   H2        1.0  0.26283  0.87968  0.19103  1.0000
  H   H3        1.0  0.66559  0.23707  0.65459  1.0000
  H   H4        1.0  0.33441  0.76292  0.34541  1.0000
  H   H5        1.0  0.17484  0.00979  0.57219  1.0000
  H   H6        1.0  0.82516  0.99021  0.42782  1.0000
  H   H7        1.0  0.11027  0.60335  0.78788  1.0000
  H   H8        1.0  0.88974  0.39666  0.21213  1.0000
  H   H9        1.0  0.89361  0.39089  0.79534  1.0000
  H   H10       1.0  0.10639  0.60912  0.20465  1.0000
  H   H11       1.0  0.22662  0.37417  0.09421  1.0000
  H   H12       1.0  0.77338  0.62583  0.90578  1.0000
  H   H13       1.0  0.45834  0.58666  0.09866  1.0000
  H   H14       1.0  0.54166  0.41333  0.90134  1.0000
  H   H15       1.0  0.82175  0.79527  0.19056  1.0000
  H   H16       1.0  0.17825  0.20473  0.80945  1.0000
  H   H17       1.0  0.96377  0.16517  0.07548  1.0000
  H   H18       1.0  0.03623  0.83483  0.92452  1.0000
  H   H19       1.0  0.23689  0.28550  0.26327  1.0000
  H   H20       1.0  0.76312  0.71450  0.73672  1.0000
  H   H21       1.0  0.10014  0.92111  0.36352  1.0000
  H   H22       1.0  0.89986  0.07888  0.63648  1.0000
  H   H23       1.0  0.88926  0.28748  0.55976  1.0000
  H   H24       1.0  0.11074  0.71252  0.44024  1.0000
  H   H25       1.0  0.22345  0.86731  0.70641  1.0000
  H   H26       1.0  0.77655  0.13269  0.29360  1.0000
  C   C1        1.0  0.51971  0.90995  0.85629  1.0000
  C   C2        1.0  0.48029  0.09005  0.14372  1.0000
  C   C3        1.0  0.43504  0.73661  0.93906  1.0000
  C   C4        1.0  0.56496  0.26339  0.06094  1.0000
  C   C5        1.0  0.70390  0.90165  0.01851  1.0000
  C   C6        1.0  0.29610  0.09835  0.98149  1.0000
  C   C7        1.0  0.48400  0.98225  0.76707  1.0000
  C   C8        1.0  0.51601  0.01775  0.23294  1.0000
  C   C9        1.0  0.61087  0.08858  0.75354  1.0000
  C   C10       1.0  0.38913  0.91141  0.24646  1.0000
  C   C11       1.0  0.57244  0.15484  0.67000  1.0000
  C   C12       1.0  0.42756  0.84516  0.33000  1.0000
  C   C13       1.0  0.29659  0.02655  0.62166  1.0000
  C   C14       1.0  0.70341  0.97345  0.37835  1.0000
  C   C15       1.0  0.32445  0.95000  0.69842  1.0000
  C   C16       1.0  0.67555  0.05000  0.30159  1.0000
  C   C17       1.0  0.30259  0.61045  0.94125  1.0000
  C   C18       1.0  0.69741  0.38955  0.05875  1.0000
  C   C19       1.0  0.14088  0.55423  0.85600  1.0000
  C   C20       1.0  0.85911  0.44577  0.14400  1.0000
  C   C21       1.0  0.02017  0.43389  0.86012  1.0000
  C   C22       1.0  0.97983  0.56611  0.13988  1.0000
  C   C23       1.0  0.20462  0.42543  0.02554  1.0000
  C   C24       1.0  0.79538  0.57456  0.97446  1.0000
  C   C25       1.0  0.33461  0.54479  0.02907  1.0000
  C   C26       1.0  0.66538  0.45521  0.97093  1.0000
  C   C27       1.0  0.87200  0.96972  0.11810  1.0000
  C   C28       1.0  0.12800  0.03027  0.88190  1.0000
  C   C29       1.0  0.91178  0.90099  0.20017  1.0000
  C   C30       1.0  0.08822  0.09901  0.79983  1.0000
  C   C31       1.0  0.99155  0.10835  0.13732  1.0000
  C   C32       1.0  0.00845  0.89165  0.86268  1.0000
  C   C33       1.0  0.14363  0.17391  0.23950  1.0000
  C   C34       1.0  0.85637  0.82609  0.76050  1.0000
  C   C35       1.0  0.06774  0.97248  0.29796  1.0000
  C   C36       1.0  0.93226  0.02752  0.70204  1.0000
  C   C37       1.0  0.69722  0.40965  0.53518  1.0000
  C   C38       1.0  0.30278  0.59035  0.46482  1.0000
  C   C39       1.0  0.84967  0.45746  0.51110  1.0000
  C   C40       1.0  0.15034  0.54254  0.48889  1.0000
  C   C41       1.0  0.83106  0.66844  0.45478  1.0000
  C   C42       1.0  0.16894  0.33157  0.54521  1.0000
  C   C43       1.0  0.91459  0.57838  0.47707  1.0000
  C   C44       1.0  0.08541  0.42163  0.52293  1.0000
  C   C45       1.0  0.93628  0.38124  0.53291  1.0000
  C   C46       1.0  0.06373  0.61876  0.46709  1.0000
  N   N1        1.0  0.39432  0.79872  0.85673  1.0000
  N   N2        1.0  0.60568  0.20129  0.14328  1.0000
  N   N3        1.0  0.58854  0.78412  0.02165  1.0000
  N   N4        1.0  0.41146  0.21588  0.97836  1.0000
  N   N5        1.0  0.67677  0.96590  0.93511  1.0000
  N   N6        1.0  0.32324  0.03410  0.06489  1.0000
  N   N7        1.0  0.41867  0.12617  0.60620  1.0000
  N   N8        1.0  0.58132  0.87382  0.39380  1.0000
  N   N9        1.0  0.04910  0.36821  0.94191  1.0000
  N   N10       1.0  0.95090  0.63179  0.05809  1.0000
  N   N11       1.0  0.18125  0.10707  0.31878  1.0000
  N   N12       1.0  0.81875  0.89292  0.68122  1.0000
  O   O1        1.0  0.56611  0.29879  0.43975  1.0000
  O   O2        1.0  0.43389  0.70120  0.56025  1.0000
  O   O3        1.0  0.70797  0.46631  0.64773  1.0000
  O   O4        1.0  0.29203  0.53369  0.35227  1.0000
  O   O5        1.0  0.68500  0.61324  0.45065  1.0000
  O   O6        1.0  0.31500  0.38676  0.54934  1.0000
  O   O7        1.0  0.90393  0.78860  0.44537  1.0000
  O   O8        1.0  0.09607  0.21140  0.55463  1.0000
