data_image0
_chemical_formula_structural       V4P2H26C30N6O16
_chemical_formula_sum              "V4 P2 H26 C30 N6 O16"
_cell_length_a       7.88884
_cell_length_b       9.91326
_cell_length_c       11.9429
_cell_angle_alpha    111.791
_cell_angle_beta     95.4806
_cell_angle_gamma    97.027

_space_group_name_H-M_alt    "P 1"
_space_group_IT_number       1

loop_
  _space_group_symop_operation_xyz
  'x, y, z'

loop_
  _atom_site_type_symbol
  _atom_site_label
  _atom_site_symmetry_multiplicity
  _atom_site_fract_x
  _atom_site_fract_y
  _atom_site_fract_z
  _atom_site_occupancy
  V   V1        1.0  0.50160  0.23170  0.69017  1.0000
  V   V2        1.0  0.49840  0.76830  0.30983  1.0000
  V   V3        1.0  0.07323  0.16306  0.37757  1.0000
  V   V4        1.0  0.92677  0.83693  0.62243  1.0000
  P   P1        1.0  0.76395  0.05847  0.51120  1.0000
  P   P2        1.0  0.23605  0.94153  0.48880  1.0000
  H   H1        1.0  0.09123  0.19170  0.71053  1.0000
  H   H2        1.0  0.90878  0.80829  0.28947  1.0000
  H   H3        1.0  0.53703  0.35569  0.96232  1.0000
  H   H4        1.0  0.46296  0.64431  0.03768  1.0000
  H   H5        1.0  0.90451  0.25661  0.87004  1.0000
  H   H6        1.0  0.09549  0.74338  0.12995  1.0000
  H   H7        1.0  0.76839  0.28605  0.01603  1.0000
  H   H8        1.0  0.23160  0.71395  0.98396  1.0000
  H   H9        1.0  0.61424  0.37714  0.19868  1.0000
  H   H10       1.0  0.38575  0.62286  0.80132  1.0000
  H   H11       1.0  0.24719  0.50982  0.26402  1.0000
  H   H12       1.0  0.75280  0.49017  0.73597  1.0000
  H   H13       1.0  0.46647  0.14501  0.35910  1.0000
  H   H14       1.0  0.53354  0.85499  0.64090  1.0000
  H   H15       1.0  0.04424  0.09291  0.10536  1.0000
  H   H16       1.0  0.95577  0.90711  0.89464  1.0000
  H   H17       1.0  0.65387  0.06785  0.20207  1.0000
  H   H18       1.0  0.34614  0.93214  0.79794  1.0000
  H   H19       1.0  0.37396  0.43537  0.13636  1.0000
  H   H20       1.0  0.62603  0.56463  0.86364  1.0000
  H   H21       1.0  0.21085  0.00642  0.93193  1.0000
  H   H22       1.0  0.78917  0.99360  0.06807  1.0000
  H   H23       1.0  0.07212  0.58998  0.43067  1.0000
  H   H24       1.0  0.92786  0.41002  0.56932  1.0000
  H   H25       1.0  0.77752  0.53226  0.39060  1.0000
  H   H26       1.0  0.22247  0.46774  0.60939  1.0000
  C   C1        1.0  0.14838  0.24436  0.80633  1.0000
  C   C2        1.0  0.85162  0.75563  0.19366  1.0000
  C   C3        1.0  0.39657  0.33702  0.94801  1.0000
  C   C4        1.0  0.60342  0.66298  0.05199  1.0000
  C   C5        1.0  0.04454  0.28072  0.89781  1.0000
  C   C6        1.0  0.95546  0.71928  0.10218  1.0000
  C   C7        1.0  0.12212  0.35033  0.02054  1.0000
  C   C8        1.0  0.87787  0.64967  0.97946  1.0000
  C   C9        1.0  0.30333  0.37908  0.04407  1.0000
  C   C10       1.0  0.69666  0.62092  0.95593  1.0000
  C   C11       1.0  0.02221  0.39306  0.12319  1.0000
  C   C12       1.0  0.97778  0.60693  0.87681  1.0000
  C   C13       1.0  0.84104  0.35322  0.10605  1.0000
  C   C14       1.0  0.15895  0.64678  0.89395  1.0000
  C   C15       1.0  0.75339  0.40093  0.20451  1.0000
  C   C16       1.0  0.24659  0.59907  0.79548  1.0000
  C   C17       1.0  0.01399  0.52102  0.33765  1.0000
  C   C18       1.0  0.98599  0.47897  0.66233  1.0000
  C   C19       1.0  0.10760  0.47585  0.24240  1.0000
  C   C20       1.0  0.89238  0.52415  0.75759  1.0000
  C   C21       1.0  0.41490  0.11454  0.26335  1.0000
  C   C22       1.0  0.58511  0.88547  0.73666  1.0000
  C   C23       1.0  0.17942  0.08283  0.12023  1.0000
  C   C24       1.0  0.82059  0.91718  0.87977  1.0000
  C   C25       1.0  0.51882  0.06898  0.17322  1.0000
  C   C26       1.0  0.48119  0.93102  0.82679  1.0000
  C   C27       1.0  0.27392  0.03561  0.02499  1.0000
  C   C28       1.0  0.72610  0.96440  0.97502  1.0000
  C   C29       1.0  0.44835  0.02610  0.04992  1.0000
  C   C30       1.0  0.55166  0.97390  0.95008  1.0000
  N   N1        1.0  0.32212  0.27148  0.83059  1.0000
  N   N2        1.0  0.67788  0.72851  0.16941  1.0000
  N   N3        1.0  0.84086  0.48517  0.31662  1.0000
  N   N4        1.0  0.15912  0.51483  0.68337  1.0000
  N   N5        1.0  0.24680  0.12031  0.23746  1.0000
  N   N6        1.0  0.75321  0.87969  0.76255  1.0000
  O   O1        1.0  0.62801  0.15905  0.55471  1.0000
  O   O2        1.0  0.37200  0.84094  0.44529  1.0000
  O   O3        1.0  0.92730  0.15093  0.49685  1.0000
  O   O4        1.0  0.07270  0.84907  0.50315  1.0000
  O   O5        1.0  0.81810  0.99614  0.60746  1.0000
  O   O6        1.0  0.18191  0.00386  0.39254  1.0000
  O   O7        1.0  0.68562  0.93417  0.38689  1.0000
  O   O8        1.0  0.31438  0.06583  0.61311  1.0000
  O   O9        1.0  0.65153  0.25046  0.80242  1.0000
  O   O10       1.0  0.34847  0.74953  0.19758  1.0000
  O   O11       1.0  0.48367  0.39410  0.68826  1.0000
  O   O12       1.0  0.51633  0.60589  0.31174  1.0000
  O   O13       1.0  0.17068  0.33501  0.44886  1.0000
  O   O14       1.0  0.82932  0.66499  0.55114  1.0000
  O   O15       1.0  0.92167  0.14771  0.26749  1.0000
  O   O16       1.0  0.07834  0.85229  0.73251  1.0000
