data_image0
_chemical_formula_structural       V4As2H26C30N6O16
_chemical_formula_sum              "V4 As2 H26 C30 N6 O16"
_cell_length_a       7.86774
_cell_length_b       10.1234
_cell_length_c       12.0349
_cell_angle_alpha    111.895
_cell_angle_beta     95.2883
_cell_angle_gamma    97.3088

_space_group_name_H-M_alt    "P 1"
_space_group_IT_number       1

loop_
  _space_group_symop_operation_xyz
  'x, y, z'

loop_
  _atom_site_type_symbol
  _atom_site_label
  _atom_site_symmetry_multiplicity
  _atom_site_fract_x
  _atom_site_fract_y
  _atom_site_fract_z
  _atom_site_occupancy
  V   V1        1.0  0.49847  0.23776  0.69466  1.0000
  V   V2        1.0  0.50153  0.76224  0.30534  1.0000
  V   V3        1.0  0.08053  0.17103  0.37840  1.0000
  V   V4        1.0  0.91947  0.82897  0.62160  1.0000
  As  As1       1.0  0.76437  0.05833  0.51180  1.0000
  As  As2       1.0  0.23563  0.94168  0.48820  1.0000
  H   H1        1.0  0.09276  0.20227  0.71799  1.0000
  H   H2        1.0  0.90725  0.79774  0.28200  1.0000
  H   H3        1.0  0.54070  0.35808  0.96722  1.0000
  H   H4        1.0  0.45930  0.64192  0.03279  1.0000
  H   H5        1.0  0.90579  0.26702  0.87682  1.0000
  H   H6        1.0  0.09422  0.73297  0.12317  1.0000
  H   H7        1.0  0.77040  0.28866  0.02211  1.0000
  H   H8        1.0  0.22960  0.71133  0.97787  1.0000
  H   H9        1.0  0.61535  0.37783  0.20329  1.0000
  H   H10       1.0  0.38465  0.62217  0.79670  1.0000
  H   H11       1.0  0.25034  0.51075  0.26798  1.0000
  H   H12       1.0  0.74966  0.48924  0.73202  1.0000
  H   H13       1.0  0.46904  0.15523  0.35719  1.0000
  H   H14       1.0  0.53096  0.84479  0.64282  1.0000
  H   H15       1.0  0.04501  0.09898  0.10479  1.0000
  H   H16       1.0  0.95498  0.90103  0.89521  1.0000
  H   H17       1.0  0.65536  0.07276  0.20094  1.0000
  H   H18       1.0  0.34464  0.92725  0.79907  1.0000
  H   H19       1.0  0.37755  0.43431  0.14084  1.0000
  H   H20       1.0  0.62245  0.56568  0.85916  1.0000
  H   H21       1.0  0.21059  0.00797  0.93226  1.0000
  H   H22       1.0  0.78940  0.99202  0.06774  1.0000
  H   H23       1.0  0.07429  0.58857  0.43364  1.0000
  H   H24       1.0  0.92569  0.41142  0.56635  1.0000
  H   H25       1.0  0.77871  0.53168  0.39393  1.0000
  H   H26       1.0  0.22128  0.46832  0.60606  1.0000
  C   C1        1.0  0.14994  0.25308  0.81320  1.0000
  C   C2        1.0  0.85007  0.74692  0.18680  1.0000
  C   C3        1.0  0.39980  0.34044  0.95336  1.0000
  C   C4        1.0  0.60021  0.65956  0.04665  1.0000
  C   C5        1.0  0.04622  0.28869  0.90426  1.0000
  C   C6        1.0  0.95377  0.71130  0.09574  1.0000
  C   C7        1.0  0.12471  0.35444  0.02607  1.0000
  C   C8        1.0  0.87531  0.64555  0.97393  1.0000
  C   C9        1.0  0.30653  0.38068  0.04912  1.0000
  C   C10       1.0  0.69347  0.61931  0.95088  1.0000
  C   C11       1.0  0.02469  0.39577  0.12823  1.0000
  C   C12       1.0  0.97530  0.60421  0.87176  1.0000
  C   C13       1.0  0.84306  0.35553  0.11135  1.0000
  C   C14       1.0  0.15695  0.64447  0.88864  1.0000
  C   C15       1.0  0.75493  0.40208  0.20914  1.0000
  C   C16       1.0  0.24506  0.59791  0.79084  1.0000
  C   C17       1.0  0.01612  0.52100  0.34117  1.0000
  C   C18       1.0  0.98387  0.47899  0.65882  1.0000
  C   C19       1.0  0.11027  0.47715  0.24660  1.0000
  C   C20       1.0  0.88973  0.52284  0.75340  1.0000
  C   C21       1.0  0.41726  0.12270  0.26180  1.0000
  C   C22       1.0  0.58274  0.87731  0.73821  1.0000
  C   C23       1.0  0.18036  0.08886  0.11964  1.0000
  C   C24       1.0  0.81964  0.91114  0.88036  1.0000
  C   C25       1.0  0.52012  0.07377  0.17216  1.0000
  C   C26       1.0  0.47987  0.92624  0.82785  1.0000
  C   C27       1.0  0.27418  0.03847  0.02474  1.0000
  C   C28       1.0  0.72581  0.96152  0.97527  1.0000
  C   C29       1.0  0.44861  0.02803  0.04955  1.0000
  C   C30       1.0  0.55139  0.97196  0.95045  1.0000
  N   N1        1.0  0.32424  0.27822  0.83702  1.0000
  N   N2        1.0  0.67575  0.72178  0.16298  1.0000
  N   N3        1.0  0.84248  0.48534  0.32039  1.0000
  N   N4        1.0  0.15752  0.51466  0.67961  1.0000
  N   N5        1.0  0.24894  0.12885  0.23606  1.0000
  N   N6        1.0  0.75106  0.87116  0.76394  1.0000
  O   O1        1.0  0.60921  0.16583  0.55102  1.0000
  O   O2        1.0  0.39079  0.83418  0.44898  1.0000
  O   O3        1.0  0.95307  0.16163  0.50702  1.0000
  O   O4        1.0  0.04694  0.83838  0.49299  1.0000
  O   O5        1.0  0.81369  0.99295  0.62062  1.0000
  O   O6        1.0  0.18631  0.00706  0.37939  1.0000
  O   O7        1.0  0.68929  0.92771  0.37072  1.0000
  O   O8        1.0  0.31072  0.07230  0.62929  1.0000
  O   O9        1.0  0.65516  0.25783  0.80234  1.0000
  O   O10       1.0  0.34484  0.74218  0.19766  1.0000
  O   O11       1.0  0.47774  0.39595  0.69178  1.0000
  O   O12       1.0  0.52226  0.60405  0.30822  1.0000
  O   O13       1.0  0.18162  0.33936  0.44883  1.0000
  O   O14       1.0  0.81839  0.66065  0.55118  1.0000
  O   O15       1.0  0.92236  0.15811  0.27426  1.0000
  O   O16       1.0  0.07763  0.84190  0.72575  1.0000
