data_image0
_chemical_formula_structural       Cu4H20C20I4N12O4
_chemical_formula_sum              "Cu4 H20 C20 I4 N12 O4"
_cell_length_a       4.01517
_cell_length_b       14.1776
_cell_length_c       14.7022
_cell_angle_alpha    110.836
_cell_angle_beta     97.872
_cell_angle_gamma    89.9542

_space_group_name_H-M_alt    "P 1"
_space_group_IT_number       1

loop_
  _space_group_symop_operation_xyz
  'x, y, z'

loop_
  _atom_site_type_symbol
  _atom_site_label
  _atom_site_symmetry_multiplicity
  _atom_site_fract_x
  _atom_site_fract_y
  _atom_site_fract_z
  _atom_site_occupancy
  Cu  Cu1       1.0  0.07990  0.20809  0.53565  1.0000
  Cu  Cu2       1.0  0.54386  0.29180  0.46437  1.0000
  Cu  Cu3       1.0  0.92009  0.79191  0.46435  1.0000
  Cu  Cu4       1.0  0.45612  0.70820  0.53563  1.0000
  H   H1        1.0  0.46804  0.34760  0.71866  1.0000
  H   H2        1.0  0.74931  0.15218  0.28124  1.0000
  H   H3        1.0  0.53195  0.65240  0.28134  1.0000
  H   H4        1.0  0.25071  0.84783  0.71877  1.0000
  H   H5        1.0  0.15450  0.07198  0.81880  1.0000
  H   H6        1.0  0.33492  0.42812  0.18137  1.0000
  H   H7        1.0  0.84550  0.92801  0.18120  1.0000
  H   H8        1.0  0.66510  0.57188  0.81863  1.0000
  H   H9        1.0  0.94437  0.07178  0.64926  1.0000
  H   H10       1.0  0.29501  0.42821  0.35094  1.0000
  H   H11       1.0  0.05562  0.92822  0.35073  1.0000
  H   H12       1.0  0.70500  0.57179  0.64906  1.0000
  H   H13       1.0  0.90705  0.45109  0.05005  1.0000
  H   H14       1.0  0.85725  0.04900  0.94994  1.0000
  H   H15       1.0  0.09293  0.54891  0.94994  1.0000
  H   H16       1.0  0.14276  0.95100  0.05007  1.0000
  H   H17       1.0  0.65934  0.33792  0.02568  1.0000
  H   H18       1.0  0.63383  0.16225  0.97438  1.0000
  H   H19       1.0  0.34067  0.66208  0.97432  1.0000
  H   H20       1.0  0.36618  0.83775  0.02562  1.0000
  C   C1        1.0  0.39398  0.28607  0.74084  1.0000
  C   C2        1.0  0.65278  0.21375  0.25910  1.0000
  C   C3        1.0  0.60601  0.71392  0.25915  1.0000
  C   C4        1.0  0.34723  0.78626  0.74090  1.0000
  C   C5        1.0  0.50018  0.28790  0.83578  1.0000
  C   C6        1.0  0.66373  0.21200  0.16419  1.0000
  C   C7        1.0  0.49982  0.71209  0.16422  1.0000
  C   C8        1.0  0.33627  0.78800  0.83581  1.0000
  C   C9        1.0  0.22099  0.13519  0.79749  1.0000
  C   C10       1.0  0.42263  0.36482  0.20261  1.0000
  C   C11       1.0  0.77901  0.86480  0.20251  1.0000
  C   C12       1.0  0.57738  0.63518  0.79739  1.0000
  C   C13       1.0  0.10778  0.13376  0.70288  1.0000
  C   C14       1.0  0.40440  0.36616  0.29721  1.0000
  C   C15       1.0  0.89222  0.86624  0.29712  1.0000
  C   C16       1.0  0.59561  0.63384  0.70279  1.0000
  C   C17       1.0  0.71478  0.37804  0.90615  1.0000
  C   C18       1.0  0.80829  0.12189  0.09383  1.0000
  C   C19       1.0  0.28520  0.62196  0.09385  1.0000
  C   C20       1.0  0.19171  0.87811  0.90618  1.0000
  I   I1        1.0  0.53831  0.09842  0.43805  1.0000
  I   I2        1.0  0.09937  0.40152  0.56188  1.0000
  I   I3        1.0  0.46169  0.90158  0.56195  1.0000
  I   I4        1.0  0.90062  0.59848  0.43811  1.0000
  N   N1        1.0  0.19447  0.20958  0.67411  1.0000
  N   N2        1.0  0.52009  0.29026  0.32589  1.0000
  N   N3        1.0  0.80552  0.79041  0.32588  1.0000
  N   N4        1.0  0.47992  0.70974  0.67411  1.0000
  N   N5        1.0  0.41484  0.21238  0.86484  1.0000
  N   N6        1.0  0.54909  0.28761  0.13521  1.0000
  N   N7        1.0  0.58516  0.78762  0.13516  1.0000
  N   N8        1.0  0.45092  0.71239  0.86479  1.0000
  N   N9        1.0  0.76413  0.38834  0.00075  1.0000
  N   N10       1.0  0.76342  0.11173  0.99927  1.0000
  N   N11       1.0  0.23587  0.61166  0.99925  1.0000
  N   N12       1.0  0.23658  0.88827  0.00073  1.0000
  O   O1        1.0  0.83469  0.43869  0.87264  1.0000
  O   O2        1.0  0.96161  0.06112  0.12729  1.0000
  O   O3        1.0  0.16528  0.56131  0.12736  1.0000
  O   O4        1.0  0.03838  0.93888  0.87272  1.0000
