data_image0
_chemical_formula_structural       Mn2H18C14N14O6
_chemical_formula_sum              "Mn2 H18 C14 N14 O6"
_cell_length_a       7.30326
_cell_length_b       7.77334
_cell_length_c       10.1977
_cell_angle_alpha    79.8272
_cell_angle_beta     75.7094
_cell_angle_gamma    74.3258

_space_group_name_H-M_alt    "P 1"
_space_group_IT_number       1

loop_
  _space_group_symop_operation_xyz
  'x, y, z'

loop_
  _atom_site_type_symbol
  _atom_site_label
  _atom_site_symmetry_multiplicity
  _atom_site_fract_x
  _atom_site_fract_y
  _atom_site_fract_z
  _atom_site_occupancy
  Mn  Mn1       1.0  0.00001  0.50000  1.00000  1.0000
  Mn  Mn2       1.0  0.00000  1.00000  1.00000  1.0000
  H   H1        1.0  0.46505  0.00505  0.25287  1.0000
  H   H2        1.0  0.53495  0.99494  0.74713  1.0000
  H   H3        1.0  0.36112  0.92459  0.14370  1.0000
  H   H4        1.0  0.63888  0.07541  0.85629  1.0000
  H   H5        1.0  0.30316  0.63013  0.19913  1.0000
  H   H6        1.0  0.69683  0.36988  0.80087  1.0000
  H   H7        1.0  0.17194  0.41565  0.39003  1.0000
  H   H8        1.0  0.82805  0.58435  0.60997  1.0000
  H   H9        1.0  0.16933  0.45281  0.63084  1.0000
  H   H10       1.0  0.83068  0.54719  0.36916  1.0000
  H   H11       1.0  0.30966  0.69505  0.67007  1.0000
  H   H12       1.0  0.69034  0.30495  0.32993  1.0000
  H   H13       1.0  0.45150  0.88881  0.46657  1.0000
  H   H14       1.0  0.54850  0.11119  0.53343  1.0000
  H   H15       1.0  0.08003  0.21509  0.19231  1.0000
  H   H16       1.0  0.91997  0.78490  0.80769  1.0000
  H   H17       1.0  0.25478  0.31565  0.15667  1.0000
  H   H18       1.0  0.74522  0.68434  0.84333  1.0000
  C   C1        1.0  0.66404  0.80376  0.13384  1.0000
  C   C2        1.0  0.33596  0.19624  0.86616  1.0000
  C   C3        1.0  0.46057  0.88342  0.21476  1.0000
  C   C4        1.0  0.53943  0.11658  0.78523  1.0000
  C   C5        1.0  0.30391  0.63512  0.30487  1.0000
  C   C6        1.0  0.69608  0.36488  0.69514  1.0000
  C   C7        1.0  0.22847  0.52083  0.41204  1.0000
  C   C8        1.0  0.77153  0.47917  0.58796  1.0000
  C   C9        1.0  0.22734  0.54187  0.54533  1.0000
  C   C10       1.0  0.77265  0.45813  0.45467  1.0000
  C   C11       1.0  0.30497  0.67641  0.56796  1.0000
  C   C12       1.0  0.69504  0.32360  0.43203  1.0000
  C   C13       1.0  0.38323  0.78498  0.45772  1.0000
  C   C14       1.0  0.61677  0.21502  0.54229  1.0000
  N   N1        1.0  0.17481  0.69913  0.99785  1.0000
  N   N2        1.0  0.82519  0.30087  0.00215  1.0000
  N   N3        1.0  0.33590  0.68919  0.92869  1.0000
  N   N4        1.0  0.66410  0.31081  0.07131  1.0000
  N   N5        1.0  0.49066  0.68431  0.85966  1.0000
  N   N6        1.0  0.50934  0.31569  0.14034  1.0000
  N   N7        1.0  0.00578  0.00690  0.20981  1.0000
  N   N8        1.0  0.99423  0.99311  0.79019  1.0000
  N   N9        1.0  0.90465  0.94004  0.30588  1.0000
  N   N10       1.0  0.09533  0.05996  0.69412  1.0000
  N   N11       1.0  0.80690  0.87344  0.39916  1.0000
  N   N12       1.0  0.19311  0.12657  0.60083  1.0000
  N   N13       1.0  0.38032  0.76396  0.32931  1.0000
  N   N14       1.0  0.61968  0.23605  0.67069  1.0000
  O   O1        1.0  0.11144  0.33576  0.17320  1.0000
  O   O2        1.0  0.88856  0.66423  0.82680  1.0000
  O   O3        1.0  0.73844  0.63673  0.14683  1.0000
  O   O4        1.0  0.26156  0.36327  0.85317  1.0000
  O   O5        1.0  0.73735  0.92368  0.05301  1.0000
  O   O6        1.0  0.26265  0.07631  0.94699  1.0000
