data_image0
_chemical_formula_structural       CuH12C12N8O6
_chemical_formula_sum              "Cu1 H12 C12 N8 O6"
_cell_length_a       6.77584
_cell_length_b       7.35828
_cell_length_c       9.24221
_cell_angle_alpha    94.0909
_cell_angle_beta     111.401
_cell_angle_gamma    112.273

_space_group_name_H-M_alt    "P 1"
_space_group_IT_number       1

loop_
  _space_group_symop_operation_xyz
  'x, y, z'

loop_
  _atom_site_type_symbol
  _atom_site_label
  _atom_site_symmetry_multiplicity
  _atom_site_fract_x
  _atom_site_fract_y
  _atom_site_fract_z
  _atom_site_occupancy
  Cu  Cu1       1.0  0.00000  0.50000  0.50000  1.0000
  H   H1        1.0  0.88171  0.70757  0.72004  1.0000
  H   H2        1.0  0.11829  0.29242  0.27996  1.0000
  H   H3        1.0  0.48376  0.28423  0.27905  1.0000
  H   H4        1.0  0.51624  0.71576  0.72095  1.0000
  H   H5        1.0  0.74475  0.28656  0.14574  1.0000
  H   H6        1.0  0.25525  0.71344  0.85426  1.0000
  H   H7        1.0  0.66843  0.39192  0.88573  1.0000
  H   H8        1.0  0.33157  0.60809  0.11427  1.0000
  H   H9        1.0  0.07875  0.89145  0.39707  1.0000
  H   H10       1.0  0.92125  0.10855  0.60293  1.0000
  H   H11       1.0  0.99518  0.99570  0.13354  1.0000
  H   H12       1.0  0.00481  0.00430  0.86646  1.0000
  C   C1        1.0  0.71073  0.61472  0.62170  1.0000
  C   C2        1.0  0.28928  0.38528  0.37829  1.0000
  C   C3        1.0  0.49258  0.38137  0.37817  1.0000
  C   C4        1.0  0.50742  0.61862  0.62183  1.0000
  C   C5        1.0  0.80430  0.44580  0.14318  1.0000
  C   C6        1.0  0.19571  0.55420  0.85682  1.0000
  C   C7        1.0  0.76002  0.50596  0.99942  1.0000
  C   C8        1.0  0.23998  0.49404  0.00058  1.0000
  C   C9        1.0  0.98774  0.78099  0.28209  1.0000
  C   C10       1.0  0.01225  0.21901  0.71791  1.0000
  C   C11       1.0  0.93993  0.83670  0.13613  1.0000
  C   C12       1.0  0.06007  0.16330  0.86387  1.0000
  N   N1        1.0  0.70264  0.49668  0.50057  1.0000
  N   N2        1.0  0.29736  0.50331  0.49943  1.0000
  N   N3        1.0  0.92055  0.58463  0.28422  1.0000
  N   N4        1.0  0.07945  0.41537  0.71578  1.0000
  N   N5        1.0  0.82830  0.70125  0.99517  1.0000
  N   N6        1.0  0.17169  0.29875  0.00483  1.0000
  N   N7        1.0  0.60749  0.98883  0.29271  1.0000
  N   N8        1.0  0.39253  0.01118  0.70729  1.0000
  O   O1        1.0  0.81383  0.13918  0.35587  1.0000
  O   O2        1.0  0.18614  0.86080  0.64412  1.0000
  O   O3        1.0  0.44961  0.99280  0.16856  1.0000
  O   O4        1.0  0.55041  0.00719  0.83145  1.0000
  O   O5        1.0  0.56821  0.84031  0.35566  1.0000
  O   O6        1.0  0.43180  0.15972  0.64434  1.0000
