data_image0
_chemical_formula_structural       Cu2H24C20S4N4O16
_chemical_formula_sum              "Cu2 H24 C20 S4 N4 O16"
_cell_length_a       8.96013
_cell_length_b       8.95326
_cell_length_c       9.56761
_cell_angle_alpha    114.937
_cell_angle_beta     90.0004
_cell_angle_gamma    90.0005

_space_group_name_H-M_alt    "P 1"
_space_group_IT_number       1

loop_
  _space_group_symop_operation_xyz
  'x, y, z'

loop_
  _atom_site_type_symbol
  _atom_site_label
  _atom_site_symmetry_multiplicity
  _atom_site_fract_x
  _atom_site_fract_y
  _atom_site_fract_z
  _atom_site_occupancy
  Cu  Cu1       1.0  0.50000  0.00000  0.50000  1.0000
  Cu  Cu2       1.0  0.00000  0.50000  0.00000  1.0000
  H   H1        1.0  0.64480  0.74765  0.21412  1.0000
  H   H2        1.0  0.14480  0.75234  0.28588  1.0000
  H   H3        1.0  0.35521  0.25235  0.78588  1.0000
  H   H4        1.0  0.85521  0.24766  0.71413  1.0000
  H   H5        1.0  0.39231  0.76998  0.83847  1.0000
  H   H6        1.0  0.89232  0.73003  0.66154  1.0000
  H   H7        1.0  0.60769  0.23002  0.16153  1.0000
  H   H8        1.0  0.10768  0.26997  0.33846  1.0000
  H   H9        1.0  0.22381  0.97427  0.03365  1.0000
  H   H10       1.0  0.72381  0.52573  0.46636  1.0000
  H   H11       1.0  0.77619  0.02573  0.96635  1.0000
  H   H12       1.0  0.27619  0.47427  0.53364  1.0000
  H   H13       1.0  0.27678  0.05734  0.31430  1.0000
  H   H14       1.0  0.77678  0.44266  0.18570  1.0000
  H   H15       1.0  0.72321  0.94266  0.68570  1.0000
  H   H16       1.0  0.22322  0.55734  0.81430  1.0000
  H   H17       1.0  0.48046  0.68069  0.40196  1.0000
  H   H18       1.0  0.98047  0.81930  0.09803  1.0000
  H   H19       1.0  0.51954  0.31931  0.59804  1.0000
  H   H20       1.0  0.01954  0.18070  0.90197  1.0000
  H   H21       1.0  0.41351  0.78156  0.56914  1.0000
  H   H22       1.0  0.91351  0.71845  0.93086  1.0000
  H   H23       1.0  0.58649  0.21844  0.43086  1.0000
  H   H24       1.0  0.08649  0.28155  0.06914  1.0000
  C   C1        1.0  0.55340  0.79512  0.16968  1.0000
  C   C2        1.0  0.05340  0.70488  0.33032  1.0000
  C   C3        1.0  0.44660  0.20488  0.83032  1.0000
  C   C4        1.0  0.94660  0.29512  0.66968  1.0000
  C   C5        1.0  0.52976  0.74246  0.01235  1.0000
  C   C6        1.0  0.02977  0.75754  0.48766  1.0000
  C   C7        1.0  0.47024  0.25754  0.98765  1.0000
  C   C8        1.0  0.97023  0.24246  0.51234  1.0000
  C   C9        1.0  0.41184  0.80780  0.96088  1.0000
  C   C10       1.0  0.91184  0.69220  0.53911  1.0000
  C   C11       1.0  0.58816  0.19220  0.03912  1.0000
  C   C12       1.0  0.08815  0.30780  0.46089  1.0000
  C   C13       1.0  0.31800  0.92188  0.06912  1.0000
  C   C14       1.0  0.81801  0.57812  0.43088  1.0000
  C   C15       1.0  0.68200  0.07812  0.93087  1.0000
  C   C16       1.0  0.18199  0.42188  0.56912  1.0000
  C   C17       1.0  0.34648  0.96867  0.22473  1.0000
  C   C18       1.0  0.84648  0.53133  0.27526  1.0000
  C   C19       1.0  0.65352  0.03133  0.77526  1.0000
  C   C20       1.0  0.15352  0.46867  0.72474  1.0000
  S   S1        1.0  0.64836  0.59266  0.87408  1.0000
  S   S2        1.0  0.14838  0.90734  0.62590  1.0000
  S   S3        1.0  0.35164  0.40734  0.12592  1.0000
  S   S4        1.0  0.85162  0.09266  0.37410  1.0000
  N   N1        1.0  0.46276  0.90740  0.27337  1.0000
  N   N2        1.0  0.96276  0.59260  0.22663  1.0000
  N   N3        1.0  0.53724  0.09260  0.72663  1.0000
  N   N4        1.0  0.03724  0.40740  0.77337  1.0000
  O   O1        1.0  0.71627  0.49778  0.95023  1.0000
  O   O2        1.0  0.21628  0.00222  0.54977  1.0000
  O   O3        1.0  0.28373  0.50223  0.04977  1.0000
  O   O4        1.0  0.78372  0.99778  0.45023  1.0000
  O   O5        1.0  0.75921  0.68873  0.83119  1.0000
  O   O6        1.0  0.25922  0.81127  0.66881  1.0000
  O   O7        1.0  0.24079  0.31127  0.16881  1.0000
  O   O8        1.0  0.74078  0.18873  0.33119  1.0000
  O   O9        1.0  0.54832  0.49881  0.74557  1.0000
  O   O10       1.0  0.04832  0.00120  0.75444  1.0000
  O   O11       1.0  0.45168  0.50119  0.25444  1.0000
  O   O12       1.0  0.95168  0.99881  0.24556  1.0000
  O   O13       1.0  0.50147  0.77672  0.50197  1.0000
  O   O14       1.0  0.00149  0.72329  0.99803  1.0000
  O   O15       1.0  0.49853  0.22328  0.49803  1.0000
  O   O16       1.0  0.99851  0.27671  0.00197  1.0000
