data_image0
_chemical_formula_structural       Zn4H28C42N8O14
_chemical_formula_sum              "Zn4 H28 C42 N8 O14"
_cell_length_a       9.84759
_cell_length_b       10.2478
_cell_length_c       10.5347
_cell_angle_alpha    91.2392
_cell_angle_beta     108.184
_cell_angle_gamma    105.798

_space_group_name_H-M_alt    "P 1"
_space_group_IT_number       1

loop_
  _space_group_symop_operation_xyz
  'x, y, z'

loop_
  _atom_site_type_symbol
  _atom_site_label
  _atom_site_symmetry_multiplicity
  _atom_site_fract_x
  _atom_site_fract_y
  _atom_site_fract_z
  _atom_site_occupancy
  Zn  Zn1       1.0  0.59816  0.71113  0.52092  1.0000
  Zn  Zn2       1.0  0.40184  0.28887  0.47908  1.0000
  Zn  Zn3       1.0  0.47023  0.57168  0.19456  1.0000
  Zn  Zn4       1.0  0.52977  0.42832  0.80544  1.0000
  H   H1        1.0  0.97932  0.12823  0.10459  1.0000
  H   H2        1.0  0.02068  0.87177  0.89541  1.0000
  H   H3        1.0  0.80270  0.29310  0.73492  1.0000
  H   H4        1.0  0.19730  0.70690  0.26508  1.0000
  H   H5        1.0  0.56233  0.11294  0.68371  1.0000
  H   H6        1.0  0.43767  0.88706  0.31629  1.0000
  H   H7        1.0  0.52875  0.93885  0.83687  1.0000
  H   H8        1.0  0.47125  0.06115  0.16313  1.0000
  H   H9        1.0  0.21807  0.29274  0.13631  1.0000
  H   H10       1.0  0.78193  0.70726  0.86369  1.0000
  H   H11       1.0  0.24054  0.63504  0.92060  1.0000
  H   H12       1.0  0.75946  0.36496  0.07940  1.0000
  H   H13       1.0  0.48402  0.79369  0.97399  1.0000
  H   H14       1.0  0.51598  0.20631  0.02601  1.0000
  H   H15       1.0  0.80693  0.74068  0.32321  1.0000
  H   H16       1.0  0.19307  0.25933  0.67679  1.0000
  H   H17       1.0  0.57034  0.12314  0.42906  1.0000
  H   H18       1.0  0.42966  0.87686  0.57094  1.0000
  H   H19       1.0  0.03193  0.14463  0.51309  1.0000
  H   H20       1.0  0.96807  0.85537  0.48691  1.0000
  H   H21       1.0  0.86547  0.46125  0.32000  1.0000
  H   H22       1.0  0.13453  0.53875  0.68000  1.0000
  H   H23       1.0  0.93644  0.94684  0.23421  1.0000
  H   H24       1.0  0.06356  0.05316  0.76579  1.0000
  H   H25       1.0  0.98393  0.47275  0.80881  1.0000
  H   H26       1.0  0.01607  0.52725  0.19119  1.0000
  H   H27       1.0  0.33892  0.56106  0.36412  1.0000
  H   H28       1.0  0.66108  0.43894  0.63588  1.0000
  C   C1        1.0  0.75221  0.01990  0.98143  1.0000
  C   C2        1.0  0.24779  0.98010  0.01857  1.0000
  C   C3        1.0  0.88838  0.12327  0.01147  1.0000
  C   C4        1.0  0.11162  0.87673  0.98853  1.0000
  C   C5        1.0  0.90794  0.22292  0.92332  1.0000
  C   C6        1.0  0.09206  0.77708  0.07668  1.0000
  C   C7        1.0  0.79004  0.21755  0.80469  1.0000
  C   C8        1.0  0.20996  0.78245  0.19531  1.0000
  C   C9        1.0  0.65434  0.11570  0.77498  1.0000
  C   C10       1.0  0.34566  0.88430  0.22502  1.0000
  C   C11       1.0  0.63544  0.01790  0.86199  1.0000
  C   C12       1.0  0.36456  0.98210  0.13801  1.0000
  C   C13       1.0  0.04650  0.33409  0.95752  1.0000
  C   C14       1.0  0.95350  0.66591  0.04248  1.0000
  C   C15       1.0  0.18134  0.35650  0.06000  1.0000
  C   C16       1.0  0.81866  0.64350  0.94000  1.0000
  C   C17       1.0  0.19981  0.53628  0.95180  1.0000
  C   C18       1.0  0.80019  0.46372  0.04820  1.0000
  C   C19       1.0  0.72349  0.91419  0.06819  1.0000
  C   C20       1.0  0.27651  0.08581  0.93181  1.0000
  C   C21       1.0  0.59139  0.81261  0.05194  1.0000
  C   C22       1.0  0.40861  0.18739  0.94806  1.0000
  C   C23       1.0  0.75574  0.78194  0.23274  1.0000
  C   C24       1.0  0.24426  0.21805  0.76726  1.0000
  C   C25       1.0  0.70514  0.29789  0.36656  1.0000
  C   C26       1.0  0.29486  0.70211  0.63344  1.0000
  C   C27       1.0  0.68138  0.17689  0.42678  1.0000
  C   C28       1.0  0.31862  0.82311  0.57322  1.0000
  C   C29       1.0  0.80084  0.12382  0.48398  1.0000
  C   C30       1.0  0.19916  0.87618  0.51602  1.0000
  C   C31       1.0  0.94169  0.19033  0.47657  1.0000
  C   C32       1.0  0.05831  0.80967  0.52343  1.0000
  C   C33       1.0  0.96680  0.31118  0.41613  1.0000
  C   C34       1.0  0.03320  0.68882  0.58387  1.0000
  C   C35       1.0  0.84823  0.36525  0.36325  1.0000
  C   C36       1.0  0.15177  0.63475  0.63676  1.0000
  C   C37       1.0  0.58036  0.35630  0.30087  1.0000
  C   C38       1.0  0.41964  0.64370  0.69912  1.0000
  C   C39       1.0  0.77856  0.99287  0.54830  1.0000
  C   C40       1.0  0.22144  0.00713  0.45170  1.0000
  C   C41       1.0  0.11970  0.37979  0.40874  1.0000
  C   C42       1.0  0.88029  0.62021  0.59126  1.0000
  N   N1        1.0  0.82532  0.89213  0.18468  1.0000
  N   N2        1.0  0.17468  0.10787  0.81532  1.0000
  N   N3        1.0  0.61292  0.73176  0.15432  1.0000
  N   N4        1.0  0.38708  0.26824  0.84568  1.0000
  N   N5        1.0  0.06244  0.44976  0.89016  1.0000
  N   N6        1.0  0.93756  0.55023  0.10984  1.0000
  N   N7        1.0  0.27514  0.48254  0.05499  1.0000
  N   N8        1.0  0.72486  0.51746  0.94501  1.0000
  O   O1        1.0  0.60804  0.45240  0.22958  1.0000
  O   O2        1.0  0.39196  0.54760  0.77042  1.0000
  O   O3        1.0  0.45099  0.30802  0.31227  1.0000
  O   O4        1.0  0.54901  0.69198  0.68773  1.0000
  O   O5        1.0  0.64732  0.90667  0.49436  1.0000
  O   O6        1.0  0.35268  0.09333  0.50564  1.0000
  O   O7        1.0  0.88307  0.97335  0.64299  1.0000
  O   O8        1.0  0.11693  0.02665  0.35701  1.0000
  O   O9        1.0  0.13748  0.47063  0.33108  1.0000
  O   O10       1.0  0.86252  0.52937  0.66892  1.0000
  O   O11       1.0  0.22539  0.33983  0.48741  1.0000
  O   O12       1.0  0.77461  0.66017  0.51260  1.0000
  O   O13       1.0  0.43917  0.61126  0.36264  1.0000
  O   O14       1.0  0.56083  0.38875  0.63736  1.0000
