data_image0
_chemical_formula_structural       Zn2H28C40N8O8
_chemical_formula_sum              "Zn2 H28 C40 N8 O8"
_cell_length_a       8.7131
_cell_length_b       9.73902
_cell_length_c       11.5626
_cell_angle_alpha    107.057
_cell_angle_beta     91.4272
_cell_angle_gamma    111.251

_space_group_name_H-M_alt    "P 1"
_space_group_IT_number       1

loop_
  _space_group_symop_operation_xyz
  'x, y, z'

loop_
  _atom_site_type_symbol
  _atom_site_label
  _atom_site_symmetry_multiplicity
  _atom_site_fract_x
  _atom_site_fract_y
  _atom_site_fract_z
  _atom_site_occupancy
  Zn  Zn1       1.0  0.11686  0.56797  0.84110  1.0000
  Zn  Zn2       1.0  0.88314  0.43203  0.15890  1.0000
  H   H1        1.0  0.58357  0.51607  0.20142  1.0000
  H   H2        1.0  0.41643  0.48393  0.79858  1.0000
  H   H3        1.0  0.65534  0.00004  0.31316  1.0000
  H   H4        1.0  0.34466  0.99996  0.68684  1.0000
  H   H5        1.0  0.81833  0.04689  0.51020  1.0000
  H   H6        1.0  0.18167  0.95311  0.48980  1.0000
  H   H7        1.0  0.86827  0.82944  0.55134  1.0000
  H   H8        1.0  0.13173  0.17056  0.44866  1.0000
  H   H9        1.0  0.87665  0.24195  0.34851  1.0000
  H   H10       1.0  0.12335  0.75805  0.65149  1.0000
  H   H11       1.0  0.71874  0.55555  0.60225  1.0000
  H   H12       1.0  0.28126  0.44444  0.39775  1.0000
  H   H13       1.0  0.44667  0.86642  0.91567  1.0000
  H   H14       1.0  0.55333  0.13358  0.08433  1.0000
  H   H15       1.0  0.27624  0.51613  0.08096  1.0000
  H   H16       1.0  0.72376  0.48387  0.91904  1.0000
  H   H17       1.0  0.08249  0.11328  0.86301  1.0000
  H   H18       1.0  0.91751  0.88672  0.13699  1.0000
  H   H19       1.0  0.60158  0.02972  0.69072  1.0000
  H   H20       1.0  0.39842  0.97029  0.30928  1.0000
  H   H21       1.0  0.49255  0.75704  0.69983  1.0000
  H   H22       1.0  0.50745  0.24297  0.30018  1.0000
  H   H23       1.0  0.68649  0.66304  0.78550  1.0000
  H   H24       1.0  0.31351  0.33696  0.21450  1.0000
  H   H25       1.0  0.81505  0.33223  0.56994  1.0000
  H   H26       1.0  0.18496  0.66777  0.43006  1.0000
  H   H27       1.0  0.67200  0.93976  0.09452  1.0000
  H   H28       1.0  0.32801  0.06023  0.90548  1.0000
  C   C1        1.0  0.72753  0.65801  0.38003  1.0000
  C   C2        1.0  0.27247  0.34198  0.61997  1.0000
  C   C3        1.0  0.63351  0.63176  0.26971  1.0000
  C   C4        1.0  0.36649  0.36823  0.73029  1.0000
  C   C5        1.0  0.60739  0.75445  0.24467  1.0000
  C   C6        1.0  0.39261  0.24554  0.75533  1.0000
  C   C7        1.0  0.67655  0.90454  0.33183  1.0000
  C   C8        1.0  0.32345  0.09546  0.66817  1.0000
  C   C9        1.0  0.76817  0.93105  0.44198  1.0000
  C   C10       1.0  0.23183  0.06895  0.55802  1.0000
  C   C11       1.0  0.79405  0.80841  0.46602  1.0000
  C   C12       1.0  0.20595  0.19159  0.53398  1.0000
  C   C13       1.0  0.83466  0.33564  0.38580  1.0000
  C   C14       1.0  0.16534  0.66436  0.61420  1.0000
  C   C15       1.0  0.75324  0.50119  0.51688  1.0000
  C   C16       1.0  0.24676  0.49881  0.48312  1.0000
  C   C17       1.0  0.75989  0.53263  0.40772  1.0000
  C   C18       1.0  0.24011  0.46737  0.59228  1.0000
  C   C19       1.0  0.44148  0.80089  0.97735  1.0000
  C   C20       1.0  0.55852  0.19912  0.02265  1.0000
  C   C21       1.0  0.35960  0.62030  0.06453  1.0000
  C   C22       1.0  0.64040  0.37969  0.93547  1.0000
  C   C23       1.0  0.51055  0.73138  0.13064  1.0000
  C   C24       1.0  0.48945  0.26862  0.86936  1.0000
  C   C25       1.0  0.89699  0.87961  0.82618  1.0000
  C   C26       1.0  0.10301  0.12039  0.17382  1.0000
  C   C27       1.0  0.95358  0.03462  0.82767  1.0000
  C   C28       1.0  0.04642  0.96538  0.17233  1.0000
  C   C29       1.0  0.84590  0.08835  0.78002  1.0000
  C   C30       1.0  0.15410  0.91165  0.21998  1.0000
  C   C31       1.0  0.68067  0.98703  0.73214  1.0000
  C   C32       1.0  0.31933  0.01297  0.26787  1.0000
  C   C33       1.0  0.62146  0.83525  0.73602  1.0000
  C   C34       1.0  0.37854  0.16475  0.26398  1.0000
  C   C35       1.0  0.72910  0.78205  0.78336  1.0000
  C   C36       1.0  0.27090  0.21795  0.21664  1.0000
  C   C37       1.0  0.01576  0.81189  0.85735  1.0000
  C   C38       1.0  0.98424  0.18811  0.14265  1.0000
  C   C39       1.0  0.90508  0.24972  0.77108  1.0000
  C   C40       1.0  0.09492  0.75028  0.22892  1.0000
  N   N1        1.0  0.81096  0.42663  0.32579  1.0000
  N   N2        1.0  0.18904  0.57336  0.67421  1.0000
  N   N3        1.0  0.80031  0.37760  0.50090  1.0000
  N   N4        1.0  0.19969  0.62240  0.49910  1.0000
  N   N5        1.0  0.55894  0.84323  0.07272  1.0000
  N   N6        1.0  0.44106  0.15677  0.92728  1.0000
  N   N7        1.0  0.31825  0.66657  0.96998  1.0000
  N   N8        1.0  0.68175  0.33343  0.03001  1.0000
  O   O1        1.0  0.17056  0.89080  0.87862  1.0000
  O   O2        1.0  0.82944  0.10920  0.12139  1.0000
  O   O3        1.0  0.95146  0.66725  0.85093  1.0000
  O   O4        1.0  0.04854  0.33276  0.14907  1.0000
  O   O5        1.0  0.83371  0.27023  0.68536  1.0000
  O   O6        1.0  0.16629  0.72977  0.31463  1.0000
  O   O7        1.0  0.02564  0.35605  0.85277  1.0000
  O   O8        1.0  0.97436  0.64396  0.14723  1.0000
