data_image0
_chemical_formula_structural       Cd2H28C40N8O8
_chemical_formula_sum              "Cd2 H28 C40 N8 O8"
_cell_length_a       8.25547
_cell_length_b       10.1773
_cell_length_c       11.2727
_cell_angle_alpha    101.149
_cell_angle_beta     88.7319
_cell_angle_gamma    112.554

_space_group_name_H-M_alt    "P 1"
_space_group_IT_number       1

loop_
  _space_group_symop_operation_xyz
  'x, y, z'

loop_
  _atom_site_type_symbol
  _atom_site_label
  _atom_site_symmetry_multiplicity
  _atom_site_fract_x
  _atom_site_fract_y
  _atom_site_fract_z
  _atom_site_occupancy
  Cd  Cd1       1.0  0.90183  0.40042  0.63820  1.0000
  Cd  Cd2       1.0  0.09817  0.59958  0.36181  1.0000
  H   H1        1.0  0.40295  0.48929  0.29552  1.0000
  H   H2        1.0  0.59705  0.51071  0.70448  1.0000
  H   H3        1.0  0.30398  0.03301  0.19875  1.0000
  H   H4        1.0  0.69602  0.96698  0.80124  1.0000
  H   H5        1.0  0.15638  0.01666  0.00317  1.0000
  H   H6        1.0  0.84362  0.98334  0.99683  1.0000
  H   H7        1.0  0.12707  0.23424  0.95603  1.0000
  H   H8        1.0  0.87293  0.76576  0.04397  1.0000
  H   H9        1.0  0.15005  0.78705  0.13278  1.0000
  H   H10       1.0  0.84995  0.21295  0.86723  1.0000
  H   H11       1.0  0.25722  0.46824  0.88278  1.0000
  H   H12       1.0  0.74278  0.53176  0.11722  1.0000
  H   H13       1.0  0.51810  0.10863  0.57984  1.0000
  H   H14       1.0  0.48190  0.89137  0.42016  1.0000
  H   H15       1.0  0.67952  0.48038  0.42345  1.0000
  H   H16       1.0  0.32047  0.51962  0.57655  1.0000
  H   H17       1.0  0.94210  0.88669  0.60293  1.0000
  H   H18       1.0  0.05789  0.11331  0.39707  1.0000
  H   H19       1.0  0.34851  0.28732  0.78093  1.0000
  H   H20       1.0  0.65150  0.71268  0.21907  1.0000
  H   H21       1.0  0.50406  0.14817  0.85200  1.0000
  H   H22       1.0  0.49593  0.85183  0.14800  1.0000
  H   H23       1.0  0.37292  0.87673  0.80182  1.0000
  H   H24       1.0  0.62707  0.12327  0.19818  1.0000
  H   H25       1.0  0.17463  0.68059  0.90392  1.0000
  H   H26       1.0  0.82537  0.31941  0.09608  1.0000
  H   H27       1.0  0.29558  0.05141  0.40350  1.0000
  H   H28       1.0  0.70442  0.94859  0.59650  1.0000
  C   C1        1.0  0.26520  0.37708  0.12124  1.0000
  C   C2        1.0  0.73480  0.62292  0.87876  1.0000
  C   C3        1.0  0.34937  0.38608  0.23107  1.0000
  C   C4        1.0  0.65063  0.61392  0.76893  1.0000
  C   C5        1.0  0.36259  0.26214  0.25990  1.0000
  C   C6        1.0  0.63741  0.73786  0.74009  1.0000
  C   C7        1.0  0.29229  0.12885  0.17693  1.0000
  C   C8        1.0  0.70771  0.87115  0.82307  1.0000
  C   C9        1.0  0.20961  0.11957  0.06780  1.0000
  C   C10       1.0  0.79039  0.88043  0.93220  1.0000
  C   C11       1.0  0.19469  0.24219  0.04054  1.0000
  C   C12       1.0  0.80531  0.75781  0.95946  1.0000
  C   C13       1.0  0.18412  0.69443  0.09862  1.0000
  C   C14       1.0  0.81588  0.30556  0.90138  1.0000
  C   C15       1.0  0.23977  0.52599  0.97036  1.0000
  C   C16       1.0  0.76023  0.47401  0.02964  1.0000
  C   C17       1.0  0.24415  0.50147  0.08672  1.0000
  C   C18       1.0  0.75586  0.49853  0.91328  1.0000
  C   C19       1.0  0.52297  0.18153  0.52039  1.0000
  C   C20       1.0  0.47703  0.81847  0.47961  1.0000
  C   C21       1.0  0.59958  0.37264  0.43845  1.0000
  C   C22       1.0  0.40042  0.62736  0.56155  1.0000
  C   C23       1.0  0.45159  0.26805  0.37233  1.0000
  C   C24       1.0  0.54841  0.73195  0.62767  1.0000
  C   C25       1.0  0.15101  0.86629  0.69805  1.0000
  C   C26       1.0  0.84898  0.13371  0.30195  1.0000
  C   C27       1.0  0.06451  0.94509  0.65788  1.0000
  C   C28       1.0  0.93549  0.05491  0.34212  1.0000
  C   C29       1.0  0.13273  0.09685  0.69071  1.0000
  C   C30       1.0  0.86727  0.90315  0.30929  1.0000
  C   C31       1.0  0.29402  0.16919  0.75807  1.0000
  C   C32       1.0  0.70598  0.83081  0.24193  1.0000
  C   C33       1.0  0.38107  0.09079  0.79754  1.0000
  C   C34       1.0  0.61893  0.90920  0.20246  1.0000
  C   C35       1.0  0.30841  0.93973  0.76958  1.0000
  C   C36       1.0  0.69159  0.06027  0.23042  1.0000
  C   C37       1.0  0.07207  0.70432  0.67247  1.0000
  C   C38       1.0  0.92793  0.29568  0.32753  1.0000
  C   C39       1.0  0.03138  0.18288  0.66246  1.0000
  C   C40       1.0  0.96862  0.81712  0.33754  1.0000
  N   N1        1.0  0.21011  0.60948  0.16630  1.0000
  N   N2        1.0  0.78989  0.39052  0.83370  1.0000
  N   N3        1.0  0.20246  0.64766  0.98006  1.0000
  N   N4        1.0  0.79754  0.35234  0.01994  1.0000
  N   N5        1.0  0.40584  0.14839  0.42690  1.0000
  N   N6        1.0  0.59416  0.85161  0.57310  1.0000
  N   N7        1.0  0.64283  0.31646  0.52950  1.0000
  N   N8        1.0  0.35717  0.68354  0.47051  1.0000
  O   O1        1.0  0.10203  0.63973  0.75055  1.0000
  O   O2        1.0  0.89797  0.36027  0.24945  1.0000
  O   O3        1.0  0.97523  0.63408  0.57594  1.0000
  O   O4        1.0  0.02477  0.36592  0.42406  1.0000
  O   O5        1.0  0.86843  0.11966  0.63002  1.0000
  O   O6        1.0  0.13157  0.88034  0.36998  1.0000
  O   O7        1.0  0.11350  0.32080  0.67849  1.0000
  O   O8        1.0  0.88650  0.67920  0.32151  1.0000
