data_image0
_chemical_formula_structural       Zn6H20C32O22
_chemical_formula_sum              "Zn6 H20 C32 O22"
_cell_length_a       8.22218
_cell_length_b       10.5107
_cell_length_c       11.8999
_cell_angle_alpha    71.9309
_cell_angle_beta     70.7476
_cell_angle_gamma    78.1632

_space_group_name_H-M_alt    "P 1"
_space_group_IT_number       1

loop_
  _space_group_symop_operation_xyz
  'x, y, z'

loop_
  _atom_site_type_symbol
  _atom_site_label
  _atom_site_symmetry_multiplicity
  _atom_site_fract_x
  _atom_site_fract_y
  _atom_site_fract_z
  _atom_site_occupancy
  Zn  Zn1       1.0  0.34262  0.37468  0.76843  1.0000
  Zn  Zn2       1.0  0.65738  0.62532  0.23157  1.0000
  Zn  Zn3       1.0  0.95665  0.34593  0.55867  1.0000
  Zn  Zn4       1.0  0.04335  0.65407  0.44132  1.0000
  Zn  Zn5       1.0  0.40829  0.42548  0.44462  1.0000
  Zn  Zn6       1.0  0.59170  0.57452  0.55539  1.0000
  H   H1        1.0  0.82816  0.43552  0.96542  1.0000
  H   H2        1.0  0.17184  0.56448  0.03458  1.0000
  H   H3        1.0  0.44571  0.17047  0.19931  1.0000
  H   H4        1.0  0.55428  0.82953  0.80068  1.0000
  H   H5        1.0  0.56290  0.01790  0.06178  1.0000
  H   H6        1.0  0.43710  0.98210  0.93822  1.0000
  H   H7        1.0  0.77706  0.00983  0.58643  1.0000
  H   H8        1.0  0.22294  0.99016  0.41357  1.0000
  H   H9        1.0  0.05401  0.74236  0.83467  1.0000
  H   H10       1.0  0.94600  0.25764  0.16532  1.0000
  H   H11       1.0  0.96624  0.90425  0.96433  1.0000
  H   H12       1.0  0.03377  0.09575  0.03567  1.0000
  H   H13       1.0  0.27517  0.22493  0.61597  1.0000
  H   H14       1.0  0.72482  0.77507  0.38403  1.0000
  H   H15       1.0  0.82738  0.55012  0.64634  1.0000
  H   H16       1.0  0.17262  0.44988  0.35366  1.0000
  H   H17       1.0  0.25969  0.56537  0.61057  1.0000
  H   H18       1.0  0.74032  0.43463  0.38943  1.0000
  H   H19       1.0  0.33392  0.18858  0.49122  1.0000
  H   H20       1.0  0.66608  0.81142  0.50878  1.0000
  C   C1        1.0  0.00785  0.28703  0.81407  1.0000
  C   C2        1.0  0.99214  0.71297  0.18592  1.0000
  C   C3        1.0  0.83457  0.26021  0.90572  1.0000
  C   C4        1.0  0.16543  0.73979  0.09428  1.0000
  C   C5        1.0  0.76556  0.34654  0.98363  1.0000
  C   C6        1.0  0.23444  0.65346  0.01637  1.0000
  C   C7        1.0  0.62426  0.31678  0.08778  1.0000
  C   C8        1.0  0.37575  0.68321  0.91222  1.0000
  C   C9        1.0  0.55217  0.19703  0.11579  1.0000
  C   C10       1.0  0.44783  0.80296  0.88421  1.0000
  C   C11       1.0  0.61744  0.11211  0.03787  1.0000
  C   C12       1.0  0.38256  0.88789  0.96213  1.0000
  C   C13       1.0  0.75681  0.14260  0.93074  1.0000
  C   C14       1.0  0.24320  0.85740  0.06926  1.0000
  C   C15       1.0  0.56692  0.40542  0.17416  1.0000
  C   C16       1.0  0.43308  0.59458  0.82584  1.0000
  C   C17       1.0  0.64264  0.19955  0.71549  1.0000
  C   C18       1.0  0.35738  0.80045  0.28450  1.0000
  C   C19       1.0  0.76280  0.07470  0.74502  1.0000
  C   C20       1.0  0.23720  0.92529  0.25498  1.0000
  C   C21       1.0  0.81698  0.98645  0.66995  1.0000
  C   C22       1.0  0.18301  0.01355  0.33005  1.0000
  C   C23       1.0  0.92194  0.86617  0.70238  1.0000
  C   C24       1.0  0.07805  0.13383  0.29763  1.0000
  C   C25       1.0  0.97418  0.83683  0.80925  1.0000
  C   C26       1.0  0.02582  0.16318  0.19075  1.0000
  C   C27       1.0  0.92393  0.92733  0.88201  1.0000
  C   C28       1.0  0.07607  0.07267  0.11799  1.0000
  C   C29       1.0  0.81782  0.04722  0.85123  1.0000
  C   C30       1.0  0.18219  0.95278  0.14877  1.0000
  C   C31       1.0  0.97743  0.76992  0.62384  1.0000
  C   C32       1.0  0.02257  0.23008  0.37616  1.0000
  O   O1        1.0  0.10614  0.32853  0.85500  1.0000
  O   O2        1.0  0.89386  0.67148  0.14500  1.0000
  O   O3        1.0  0.05448  0.26471  0.70730  1.0000
  O   O4        1.0  0.94551  0.73528  0.29271  1.0000
  O   O5        1.0  0.62520  0.52010  0.13211  1.0000
  O   O6        1.0  0.37480  0.47990  0.86790  1.0000
  O   O7        1.0  0.47034  0.36003  0.28255  1.0000
  O   O8        1.0  0.52965  0.63997  0.71746  1.0000
  O   O9        1.0  0.69829  0.30007  0.62799  1.0000
  O   O10       1.0  0.30172  0.69993  0.37200  1.0000
  O   O11       1.0  0.48596  0.19916  0.78415  1.0000
  O   O12       1.0  0.51405  0.80085  0.21585  1.0000
  O   O13       1.0  0.92866  0.80403  0.52471  1.0000
  O   O14       1.0  0.07134  0.19597  0.47529  1.0000
  O   O15       1.0  0.06766  0.65918  0.65548  1.0000
  O   O16       1.0  0.93234  0.34081  0.34453  1.0000
  O   O17       1.0  0.36312  0.49653  0.60122  1.0000
  O   O18       1.0  0.63688  0.50347  0.39878  1.0000
  O   O19       1.0  0.83936  0.53382  0.56744  1.0000
  O   O20       1.0  0.16063  0.46618  0.43256  1.0000
  O   O21       1.0  0.37782  0.22167  0.54306  1.0000
  O   O22       1.0  0.62218  0.77833  0.45693  1.0000
