data_image0
_chemical_formula_structural       Cu2H16C12N20O8
_chemical_formula_sum              "Cu2 H16 C12 N20 O8"
_cell_length_a       4.87483
_cell_length_b       11.5319
_cell_length_c       11.0423
_cell_angle_alpha    90
_cell_angle_beta     89.9976
_cell_angle_gamma    94.0296

_space_group_name_H-M_alt    "P 1"
_space_group_IT_number       1

loop_
  _space_group_symop_operation_xyz
  'x, y, z'

loop_
  _atom_site_type_symbol
  _atom_site_label
  _atom_site_symmetry_multiplicity
  _atom_site_fract_x
  _atom_site_fract_y
  _atom_site_fract_z
  _atom_site_occupancy
  Cu  Cu1       1.0  0.49997  0.50000  1.00000  1.0000
  Cu  Cu2       1.0  0.00003  0.00000  0.50000  1.0000
  H   H1        1.0  0.50297  0.95650  0.32863  1.0000
  H   H2        1.0  0.99702  0.54351  0.82862  1.0000
  H   H3        1.0  0.49706  0.04349  0.67137  1.0000
  H   H4        1.0  0.00294  0.45650  0.17137  1.0000
  H   H5        1.0  0.29017  0.83457  0.29316  1.0000
  H   H6        1.0  0.20983  0.66543  0.79315  1.0000
  H   H7        1.0  0.70987  0.16544  0.70686  1.0000
  H   H8        1.0  0.79014  0.33457  0.20685  1.0000
  H   H9        1.0  0.17628  0.64566  0.33978  1.0000
  H   H10       1.0  0.32371  0.85435  0.83977  1.0000
  H   H11       1.0  0.82370  0.35435  0.66023  1.0000
  H   H12       1.0  0.67631  0.14565  0.16024  1.0000
  H   H13       1.0  0.32557  0.53094  0.41465  1.0000
  H   H14       1.0  0.17441  0.96908  0.91465  1.0000
  H   H15       1.0  0.67442  0.46907  0.58535  1.0000
  H   H16       1.0  0.82560  0.03092  0.08534  1.0000
  C   C1        1.0  0.58361  0.80866  0.41820  1.0000
  C   C2        1.0  0.91639  0.69135  0.91819  1.0000
  C   C3        1.0  0.41638  0.19134  0.58181  1.0000
  C   C4        1.0  0.08360  0.30867  0.08179  1.0000
  C   C5        1.0  0.37374  0.61121  0.36277  1.0000
  C   C6        1.0  0.12627  0.88878  0.86278  1.0000
  C   C7        1.0  0.62624  0.38880  0.63724  1.0000
  C   C8        1.0  0.87375  0.11121  0.13724  1.0000
  C   C9        1.0  0.53285  0.58080  0.24767  1.0000
  C   C10       1.0  0.96711  0.91918  0.74766  1.0000
  C   C11       1.0  0.46711  0.41920  0.75233  1.0000
  C   C12       1.0  0.03291  0.08082  0.25234  1.0000
  N   N1        1.0  0.80542  0.84369  0.48475  1.0000
  N   N2        1.0  0.69452  0.65633  0.98476  1.0000
  N   N3        1.0  0.19457  0.15630  0.51524  1.0000
  N   N4        1.0  0.30544  0.34370  0.01525  1.0000
  N   N5        1.0  0.89297  0.74773  0.54150  1.0000
  N   N6        1.0  0.60698  0.75226  0.04150  1.0000
  N   N7        1.0  0.10702  0.25227  0.45850  1.0000
  N   N8        1.0  0.39301  0.24774  0.95849  1.0000
  N   N9        1.0  0.73854  0.65711  0.51217  1.0000
  N   N10       1.0  0.76144  0.84288  0.01217  1.0000
  N   N11       1.0  0.26145  0.34288  0.48784  1.0000
  N   N12       1.0  0.23858  0.15712  0.98783  1.0000
  N   N13       1.0  0.53899  0.69255  0.43623  1.0000
  N   N14       1.0  0.96101  0.80743  0.93623  1.0000
  N   N15       1.0  0.46102  0.30743  0.56376  1.0000
  N   N16       1.0  0.03902  0.19256  0.06376  1.0000
  N   N17       1.0  0.42342  0.87487  0.35275  1.0000
  N   N18       1.0  0.07657  0.62512  0.85273  1.0000
  N   N19       1.0  0.57663  0.12512  0.64727  1.0000
  N   N20       1.0  0.92340  0.37487  0.14726  1.0000
  O   O1        1.0  0.78642  0.59911  0.24367  1.0000
  O   O2        1.0  0.71353  0.90090  0.74368  1.0000
  O   O3        1.0  0.21353  0.40088  0.75632  1.0000
  O   O4        1.0  0.28650  0.09910  0.25631  1.0000
  O   O5        1.0  0.37326  0.53451  0.16458  1.0000
  O   O6        1.0  0.12675  0.96550  0.66458  1.0000
  O   O7        1.0  0.62674  0.46551  0.83542  1.0000
  O   O8        1.0  0.87330  0.03450  0.33542  1.0000
