data_image0
_chemical_formula_structural       MnH22C28O12
_chemical_formula_sum              "Mn1 H22 C28 O12"
_cell_length_a       5.38657
_cell_length_b       4.85067
_cell_length_c       25.6068
_cell_angle_alpha    88.8196
_cell_angle_beta     86.617
_cell_angle_gamma    84.5345

_space_group_name_H-M_alt    "P 1"
_space_group_IT_number       1

loop_
  _space_group_symop_operation_xyz
  'x, y, z'

loop_
  _atom_site_type_symbol
  _atom_site_label
  _atom_site_symmetry_multiplicity
  _atom_site_fract_x
  _atom_site_fract_y
  _atom_site_fract_z
  _atom_site_occupancy
  Mn  Mn1       1.0  0.91149  0.48229  0.00310  1.0000
  H   H1        1.0  0.19872  0.50771  0.53618  1.0000
  H   H2        1.0  0.51326  0.36384  0.49041  1.0000
  H   H3        1.0  0.42704  0.01370  0.73178  1.0000
  H   H4        1.0  0.26746  0.74165  0.66111  1.0000
  H   H5        1.0  0.55799  0.28412  0.23192  1.0000
  H   H6        1.0  0.96975  0.32592  0.62140  1.0000
  H   H7        1.0  0.64887  0.35318  0.13537  1.0000
  H   H8        1.0  0.82242  0.03632  0.55134  1.0000
  H   H9        1.0  0.05361  0.74547  0.84803  1.0000
  H   H10       1.0  0.04070  0.88405  0.75303  1.0000
  H   H11       1.0  0.53166  0.59373  0.79407  1.0000
  H   H12       1.0  0.51873  0.81118  0.26276  1.0000
  H   H13       1.0  0.69698  0.09980  0.32868  1.0000
  H   H14       1.0  0.98576  0.54898  0.38120  1.0000
  H   H15       1.0  0.14750  0.85899  0.44493  1.0000
  H   H16       1.0  0.84627  0.75321  0.22044  1.0000
  H   H17       1.0  0.92509  0.80471  0.12461  1.0000
  H   H18       1.0  0.54521  0.45544  0.88877  1.0000
  H   H19       1.0  0.06104  0.27767  0.09790  1.0000
  H   H20       1.0  0.02477  0.02356  0.06237  1.0000
  H   H21       1.0  0.23399  0.01830  0.98939  1.0000
  H   H22       1.0  0.41723  0.23636  0.97116  1.0000
  C   C1        1.0  0.53683  0.87156  0.60192  1.0000
  C   C2        1.0  0.51055  0.01865  0.69202  1.0000
  C   C3        1.0  0.70866  0.18103  0.68023  1.0000
  C   C4        1.0  0.36417  0.65830  0.06713  1.0000
  C   C5        1.0  0.29975  0.59437  0.12374  1.0000
  C   C6        1.0  0.42231  0.86790  0.65259  1.0000
  C   C7        1.0  0.42332  0.40113  0.20789  1.0000
  C   C8        1.0  0.81856  0.19452  0.62947  1.0000
  C   C9        1.0  0.81185  0.00562  0.93029  1.0000
  C   C10       1.0  0.47401  0.44118  0.15443  1.0000
  C   C11       1.0  0.80207  0.09277  0.87415  1.0000
  C   C12       1.0  0.73523  0.03589  0.59080  1.0000
  C   C13       1.0  0.46669  0.69579  0.56012  1.0000
  C   C14       1.0  0.94190  0.93213  0.83579  1.0000
  C   C15       1.0  0.93623  0.00934  0.78326  1.0000
  C   C16       1.0  0.64465  0.40826  0.80642  1.0000
  C   C17       1.0  0.24508  0.66198  0.31870  1.0000
  C   C18       1.0  0.43586  0.99519  0.39084  1.0000
  C   C19       1.0  0.44292  0.81736  0.30305  1.0000
  C   C20       1.0  0.54006  0.97963  0.33942  1.0000
  C   C21       1.0  0.13983  0.67191  0.36990  1.0000
  C   C22       1.0  0.19901  0.52152  0.23157  1.0000
  C   C23       1.0  0.54755  0.17560  0.42676  1.0000
  C   C24       1.0  0.23383  0.84234  0.40545  1.0000
  C   C25       1.0  0.02114  0.66611  0.20135  1.0000
  C   C26       1.0  0.06856  0.69750  0.14773  1.0000
  C   C27       1.0  0.78892  0.24913  0.76906  1.0000
  C   C28       1.0  0.65320  0.33045  0.85904  1.0000
  O   O1        1.0  0.94632  0.20905  0.07409  1.0000
  O   O2        1.0  0.90398  0.76091  0.94011  1.0000
  O   O3        1.0  0.23660  0.20651  0.97383  1.0000
  O   O4        1.0  0.58907  0.64094  0.05059  1.0000
  O   O5        1.0  0.72529  0.18005  0.96567  1.0000
  O   O6        1.0  0.18003  0.74059  0.03809  1.0000
  O   O7        1.0  0.23166  0.61734  0.56648  1.0000
  O   O8        1.0  0.61042  0.62199  0.52259  1.0000
  O   O9        1.0  0.14017  0.49284  0.28455  1.0000
  O   O10       1.0  0.41904  0.22232  0.47355  1.0000
  O   O11       1.0  0.79813  0.34261  0.71720  1.0000
  O   O12       1.0  0.74375  0.28026  0.41615  1.0000
