data_image0
_chemical_formula_structural       Mn2H12C18O14
_chemical_formula_sum              "Mn2 H12 C18 O14"
_cell_length_a       6.92738
_cell_length_b       6.55323
_cell_length_c       11.0648
_cell_angle_alpha    92.3033
_cell_angle_beta     102.368
_cell_angle_gamma    111.513

_space_group_name_H-M_alt    "P 1"
_space_group_IT_number       1

loop_
  _space_group_symop_operation_xyz
  'x, y, z'

loop_
  _atom_site_type_symbol
  _atom_site_label
  _atom_site_symmetry_multiplicity
  _atom_site_fract_x
  _atom_site_fract_y
  _atom_site_fract_z
  _atom_site_occupancy
  Mn  Mn1       1.0  0.28308  0.58722  0.07365  1.0000
  Mn  Mn2       1.0  0.71692  0.41279  0.92633  1.0000
  H   H1        1.0  0.11652  0.23206  0.28049  1.0000
  H   H2        1.0  0.88347  0.76795  0.71952  1.0000
  H   H3        1.0  0.36832  0.47102  0.58680  1.0000
  H   H4        1.0  0.63167  0.52897  0.41320  1.0000
  H   H5        1.0  0.18245  0.93484  0.37683  1.0000
  H   H6        1.0  0.81760  0.06518  0.62318  1.0000
  H   H7        1.0  0.18871  0.13700  0.57309  1.0000
  H   H8        1.0  0.81132  0.86302  0.42689  1.0000
  H   H9        1.0  0.01394  0.17940  0.91796  1.0000
  H   H10       1.0  0.98607  0.82059  0.08205  1.0000
  H   H11       1.0  0.95707  0.16984  0.05002  1.0000
  H   H12       1.0  0.04295  0.83020  0.94999  1.0000
  C   C1        1.0  0.40204  0.65173  0.81694  1.0000
  C   C2        1.0  0.59794  0.34826  0.18305  1.0000
  C   C3        1.0  0.34072  0.73354  0.69531  1.0000
  C   C4        1.0  0.65928  0.26646  0.30469  1.0000
  C   C5        1.0  0.32973  0.61752  0.58394  1.0000
  C   C6        1.0  0.67031  0.38248  0.41608  1.0000
  C   C7        1.0  0.26419  0.68460  0.46903  1.0000
  C   C8        1.0  0.73582  0.31540  0.53098  1.0000
  C   C9        1.0  0.22582  0.87981  0.46642  1.0000
  C   C10       1.0  0.77417  0.12020  0.53358  1.0000
  C   C11       1.0  0.23153  0.99302  0.57692  1.0000
  C   C12       1.0  0.76847  0.00697  0.42308  1.0000
  C   C13       1.0  0.27910  0.91581  0.69107  1.0000
  C   C14       1.0  0.72089  0.08419  0.30891  1.0000
  C   C15       1.0  0.21819  0.54575  0.34942  1.0000
  C   C16       1.0  0.78180  0.45425  0.65058  1.0000
  C   C17       1.0  0.25472  0.02115  0.80732  1.0000
  C   C18       1.0  0.74527  0.97884  0.19270  1.0000
  O   O1        1.0  0.27485  0.62531  0.88745  1.0000
  O   O2        1.0  0.72513  0.37470  0.11254  1.0000
  O   O3        1.0  0.57200  0.61363  0.83755  1.0000
  O   O4        1.0  0.42795  0.38632  0.16244  1.0000
  O   O5        1.0  0.19203  0.33840  0.36187  1.0000
  O   O6        1.0  0.80797  0.66159  0.63814  1.0000
  O   O7        1.0  0.19750  0.62017  0.24754  1.0000
  O   O8        1.0  0.80252  0.37985  0.75246  1.0000
  O   O9        1.0  0.06164  0.97292  0.81920  1.0000
  O   O10       1.0  0.93836  0.02709  0.18081  1.0000
  O   O11       1.0  0.41741  0.14856  0.88715  1.0000
  O   O12       1.0  0.58259  0.85140  0.11284  1.0000
  O   O13       1.0  0.98358  0.26503  0.98262  1.0000
  O   O14       1.0  0.01637  0.73494  0.01740  1.0000
