data_image0
_chemical_formula_structural       Cu4P4H20C28O20
_chemical_formula_sum              "Cu4 P4 H20 C28 O20"
_cell_length_a       5.24609
_cell_length_b       8.12354
_cell_length_c       18.7604
_cell_angle_alpha    89.9993
_cell_angle_beta     90.0285
_cell_angle_gamma    89.9993

_space_group_name_H-M_alt    "P 1"
_space_group_IT_number       1

loop_
  _space_group_symop_operation_xyz
  'x, y, z'

loop_
  _atom_site_type_symbol
  _atom_site_label
  _atom_site_symmetry_multiplicity
  _atom_site_fract_x
  _atom_site_fract_y
  _atom_site_fract_z
  _atom_site_occupancy
  Cu  Cu1       1.0  0.49600  0.81348  0.99928  1.0000
  Cu  Cu2       1.0  0.00400  0.31348  0.00072  1.0000
  Cu  Cu3       1.0  0.50400  0.18652  0.00073  1.0000
  Cu  Cu4       1.0  0.99600  0.68652  0.99927  1.0000
  P   P1        1.0  0.91656  0.99848  0.90714  1.0000
  P   P2        1.0  0.58344  0.49848  0.09286  1.0000
  P   P3        1.0  0.08343  0.00152  0.09286  1.0000
  P   P4        1.0  0.41659  0.50152  0.90714  1.0000
  H   H1        1.0  0.39001  0.15059  0.70127  1.0000
  H   H2        1.0  0.10998  0.65058  0.29872  1.0000
  H   H3        1.0  0.61000  0.84939  0.29871  1.0000
  H   H4        1.0  0.89001  0.34942  0.70129  1.0000
  H   H5        1.0  0.50580  0.14518  0.83014  1.0000
  H   H6        1.0  0.99419  0.64517  0.16986  1.0000
  H   H7        1.0  0.49418  0.85483  0.16985  1.0000
  H   H8        1.0  0.00586  0.35483  0.83015  1.0000
  H   H9        1.0  0.16669  0.85065  0.78045  1.0000
  H   H10       1.0  0.33331  0.35065  0.21955  1.0000
  H   H11       1.0  0.83329  0.14935  0.21956  1.0000
  H   H12       1.0  0.66671  0.64937  0.78045  1.0000
  H   H13       1.0  0.05051  0.85921  0.65150  1.0000
  H   H14       1.0  0.44948  0.35920  0.34850  1.0000
  H   H15       1.0  0.94952  0.14077  0.34850  1.0000
  H   H16       1.0  0.55049  0.64081  0.65150  1.0000
  H   H17       1.0  0.68768  0.92189  0.49843  1.0000
  H   H18       1.0  0.81231  0.42191  0.50157  1.0000
  H   H19       1.0  0.31233  0.07807  0.50156  1.0000
  H   H20       1.0  0.18765  0.57810  0.49844  1.0000
  C   C1        1.0  0.84435  0.99843  0.81329  1.0000
  C   C2        1.0  0.65565  0.49843  0.18671  1.0000
  C   C3        1.0  0.15564  0.00157  0.18671  1.0000
  C   C4        1.0  0.34438  0.50158  0.81329  1.0000
  C   C5        1.0  0.56032  0.08639  0.71923  1.0000
  C   C6        1.0  0.93968  0.58637  0.28077  1.0000
  C   C7        1.0  0.43968  0.91360  0.28076  1.0000
  C   C8        1.0  0.06033  0.41363  0.71923  1.0000
  C   C9        1.0  0.62525  0.08334  0.79097  1.0000
  C   C10       1.0  0.87475  0.58334  0.20903  1.0000
  C   C11       1.0  0.37474  0.91665  0.20902  1.0000
  C   C12       1.0  0.12528  0.41667  0.79098  1.0000
  C   C13       1.0  0.99786  0.91749  0.76306  1.0000
  C   C14       1.0  0.50213  0.41750  0.23694  1.0000
  C   C15       1.0  0.00214  0.08250  0.23695  1.0000
  C   C16       1.0  0.49788  0.58251  0.76305  1.0000
  C   C17       1.0  0.93205  0.92088  0.69101  1.0000
  C   C18       1.0  0.56794  0.42087  0.30899  1.0000
  C   C19       1.0  0.06796  0.07911  0.30899  1.0000
  C   C20       1.0  0.43204  0.57915  0.69101  1.0000
  C   C21       1.0  0.71174  0.00450  0.66897  1.0000
  C   C22       1.0  0.78825  0.50449  0.33102  1.0000
  C   C23       1.0  0.28826  0.99548  0.33102  1.0000
  C   C24       1.0  0.21174  0.49552  0.66898  1.0000
  C   C25       1.0  0.62461  0.00470  0.59353  1.0000
  C   C26       1.0  0.87537  0.50471  0.40647  1.0000
  C   C27       1.0  0.37540  0.99526  0.40647  1.0000
  C   C28       1.0  0.12459  0.49532  0.59353  1.0000
  O   O1        1.0  0.65036  0.00017  0.94616  1.0000
  O   O2        1.0  0.84964  0.50017  0.05384  1.0000
  O   O3        1.0  0.34963  0.99983  0.05384  1.0000
  O   O4        1.0  0.15038  0.49983  0.94616  1.0000
  O   O5        1.0  0.06961  0.84237  0.92445  1.0000
  O   O6        1.0  0.43038  0.34237  0.07555  1.0000
  O   O7        1.0  0.93037  0.15763  0.07555  1.0000
  O   O8        1.0  0.56964  0.65763  0.92446  1.0000
  O   O9        1.0  0.06545  0.15702  0.92425  1.0000
  O   O10       1.0  0.43454  0.65701  0.07574  1.0000
  O   O11       1.0  0.93454  0.84299  0.07574  1.0000
  O   O12       1.0  0.56548  0.34299  0.92426  1.0000
  O   O13       1.0  0.76659  0.91873  0.54918  1.0000
  O   O14       1.0  0.73341  0.41873  0.45082  1.0000
  O   O15       1.0  0.23343  0.08124  0.45081  1.0000
  O   O16       1.0  0.26656  0.58128  0.54918  1.0000
  O   O17       1.0  0.42632  0.07990  0.57617  1.0000
  O   O18       1.0  0.07364  0.57993  0.42383  1.0000
  O   O19       1.0  0.57367  0.92004  0.42383  1.0000
  O   O20       1.0  0.92629  0.42011  0.57618  1.0000
