data_image0
_chemical_formula_structural       Gd2H28C24N18O14
_chemical_formula_sum              "Gd2 H28 C24 N18 O14"
_cell_length_a       8.67636
_cell_length_b       9.8149
_cell_length_c       10.9873
_cell_angle_alpha    81.6932
_cell_angle_beta     86.5337
_cell_angle_gamma    76.7728

_space_group_name_H-M_alt    "P 1"
_space_group_IT_number       1

loop_
  _space_group_symop_operation_xyz
  'x, y, z'

loop_
  _atom_site_type_symbol
  _atom_site_label
  _atom_site_symmetry_multiplicity
  _atom_site_fract_x
  _atom_site_fract_y
  _atom_site_fract_z
  _atom_site_occupancy
  Gd  Gd1       1.0  0.38738  0.03231  0.15758  1.0000
  Gd  Gd2       1.0  0.61262  0.96769  0.84242  1.0000
  H   H1        1.0  0.13961  0.13839  0.34884  1.0000
  H   H2        1.0  0.86040  0.86162  0.65116  1.0000
  H   H3        1.0  0.05802  0.18914  0.21593  1.0000
  H   H4        1.0  0.94198  0.81086  0.78407  1.0000
  H   H5        1.0  0.11364  0.51571  0.74771  1.0000
  H   H6        1.0  0.88636  0.48429  0.25229  1.0000
  H   H7        1.0  0.19425  0.80581  0.97136  1.0000
  H   H8        1.0  0.80575  0.19419  0.02864  1.0000
  H   H9        1.0  0.03665  0.00666  0.62103  1.0000
  H   H10       1.0  0.96335  0.99334  0.37897  1.0000
  H   H11       1.0  0.17300  0.38195  0.46991  1.0000
  H   H12       1.0  0.82700  0.61806  0.53009  1.0000
  H   H13       1.0  0.21123  0.72988  0.49278  1.0000
  H   H14       1.0  0.78877  0.27012  0.50722  1.0000
  H   H15       1.0  0.37762  0.60460  0.44307  1.0000
  H   H16       1.0  0.62238  0.39539  0.55693  1.0000
  H   H17       1.0  0.67219  0.58826  0.78323  1.0000
  H   H18       1.0  0.32781  0.41174  0.21677  1.0000
  H   H19       1.0  0.37141  0.94135  0.59404  1.0000
  H   H20       1.0  0.62859  0.05865  0.40597  1.0000
  H   H21       1.0  0.52577  0.39338  0.84739  1.0000
  H   H22       1.0  0.47423  0.60662  0.15261  1.0000
  H   H23       1.0  0.37311  0.34054  0.77753  1.0000
  H   H24       1.0  0.62689  0.65946  0.22246  1.0000
  H   H25       1.0  0.96574  0.07394  0.84298  1.0000
  H   H26       1.0  0.03426  0.92606  0.15701  1.0000
  H   H27       1.0  0.00009  0.23730  0.87174  1.0000
  H   H28       1.0  0.99991  0.76270  0.12826  1.0000
  C   C1        1.0  0.16087  0.57029  0.81112  1.0000
  C   C2        1.0  0.83912  0.42971  0.18888  1.0000
  C   C3        1.0  0.20501  0.71291  0.92590  1.0000
  C   C4        1.0  0.79499  0.28709  0.07410  1.0000
  C   C5        1.0  0.07043  0.10784  0.60629  1.0000
  C   C6        1.0  0.92957  0.89216  0.39371  1.0000
  C   C7        1.0  0.13682  0.29917  0.53397  1.0000
  C   C8        1.0  0.86318  0.70083  0.46603  1.0000
  C   C9        1.0  0.36048  0.81825  0.35519  1.0000
  C   C10       1.0  0.63951  0.18175  0.64481  1.0000
  C   C11       1.0  0.33829  0.71211  0.46760  1.0000
  C   C12       1.0  0.66171  0.28790  0.53240  1.0000
  C   C13       1.0  0.58890  0.65383  0.71722  1.0000
  C   C14       1.0  0.41110  0.34617  0.28278  1.0000
  C   C15       1.0  0.43494  0.83468  0.62479  1.0000
  C   C16       1.0  0.56505  0.16532  0.37521  1.0000
  C   C17       1.0  0.39720  0.26759  0.96976  1.0000
  C   C18       1.0  0.60280  0.73241  0.03024  1.0000
  C   C19       1.0  0.40411  0.37908  0.85979  1.0000
  C   C20       1.0  0.59589  0.62092  0.14021  1.0000
  C   C21       1.0  0.20628  0.06520  0.89096  1.0000
  C   C22       1.0  0.79372  0.93480  0.10904  1.0000
  C   C23       1.0  0.05102  0.14228  0.82891  1.0000
  C   C24       1.0  0.94898  0.85772  0.17109  1.0000
  N   N1        1.0  0.42821  0.72068  0.57235  1.0000
  N   N2        1.0  0.57179  0.27932  0.42765  1.0000
  N   N3        1.0  0.52714  0.60336  0.63023  1.0000
  N   N4        1.0  0.47286  0.39664  0.36977  1.0000
  N   N5        1.0  0.53547  0.79590  0.71738  1.0000
  N   N6        1.0  0.46454  0.20410  0.28262  1.0000
  N   N7        1.0  0.29656  0.51308  0.87081  1.0000
  N   N8        1.0  0.70344  0.48692  0.12919  1.0000
  N   N9        1.0  0.07246  0.18376  0.69836  1.0000
  N   N10       1.0  0.92755  0.81625  0.30164  1.0000
  N   N11       1.0  0.09970  0.69788  0.84387  1.0000
  N   N12       1.0  0.90030  0.30212  0.15613  1.0000
  N   N13       1.0  0.32651  0.60270  0.94513  1.0000
  N   N14       1.0  0.67349  0.39729  0.05486  1.0000
  N   N15       1.0  0.11012  0.17839  0.49981  1.0000
  N   N16       1.0  0.88988  0.82162  0.50018  1.0000
  N   N17       1.0  0.11582  0.30672  0.65403  1.0000
  N   N18       1.0  0.88419  0.69328  0.34597  1.0000
  O   O1        1.0  0.14633  0.11680  0.26195  1.0000
  O   O2        1.0  0.85367  0.88320  0.73805  1.0000
  O   O3        1.0  0.44149  0.90912  0.36403  1.0000
  O   O4        1.0  0.55851  0.09088  0.63597  1.0000
  O   O5        1.0  0.29463  0.81199  0.25680  1.0000
  O   O6        1.0  0.70537  0.18801  0.74320  1.0000
  O   O7        1.0  0.49911  0.14898  0.96913  1.0000
  O   O8        1.0  0.50089  0.85102  0.03087  1.0000
  O   O9        1.0  0.29573  0.28743  0.05521  1.0000
  O   O10       1.0  0.70427  0.71257  0.94479  1.0000
  O   O11       1.0  0.19640  0.04060  0.00772  1.0000
  O   O12       1.0  0.80360  0.95940  0.99228  1.0000
  O   O13       1.0  0.32778  0.03325  0.82277  1.0000
  O   O14       1.0  0.67222  0.96675  0.17723  1.0000
