data_image0
_chemical_formula_structural       Nd2H28C24N18O14
_chemical_formula_sum              "Nd2 H28 C24 N18 O14"
_cell_length_a       8.71105
_cell_length_b       9.86958
_cell_length_c       11.1285
_cell_angle_alpha    81.4749
_cell_angle_beta     86.3745
_cell_angle_gamma    77.0342

_space_group_name_H-M_alt    "P 1"
_space_group_IT_number       1

loop_
  _space_group_symop_operation_xyz
  'x, y, z'

loop_
  _atom_site_type_symbol
  _atom_site_label
  _atom_site_symmetry_multiplicity
  _atom_site_fract_x
  _atom_site_fract_y
  _atom_site_fract_z
  _atom_site_occupancy
  Nd  Nd1       1.0  0.38474  0.03130  0.15937  1.0000
  Nd  Nd2       1.0  0.61526  0.96870  0.84063  1.0000
  H   H1        1.0  0.21017  0.72658  0.49714  1.0000
  H   H2        1.0  0.78983  0.27342  0.50286  1.0000
  H   H3        1.0  0.37489  0.60172  0.44793  1.0000
  H   H4        1.0  0.62511  0.39828  0.55207  1.0000
  H   H5        1.0  0.67375  0.58800  0.78011  1.0000
  H   H6        1.0  0.32625  0.41201  0.21989  1.0000
  H   H7        1.0  0.36679  0.93602  0.59735  1.0000
  H   H8        1.0  0.63321  0.06398  0.40265  1.0000
  H   H9        1.0  0.52602  0.39689  0.84944  1.0000
  H   H10       1.0  0.47398  0.60311  0.15056  1.0000
  H   H11       1.0  0.37619  0.34331  0.77905  1.0000
  H   H12       1.0  0.62381  0.65670  0.22095  1.0000
  H   H13       1.0  0.19445  0.80650  0.96735  1.0000
  H   H14       1.0  0.80555  0.19350  0.03265  1.0000
  H   H15       1.0  0.11673  0.51637  0.74799  1.0000
  H   H16       1.0  0.88327  0.48363  0.25201  1.0000
  H   H17       1.0  0.96304  0.08218  0.84117  1.0000
  H   H18       1.0  0.03696  0.91782  0.15883  1.0000
  H   H19       1.0  0.00266  0.24274  0.86960  1.0000
  H   H20       1.0  0.99734  0.75726  0.13040  1.0000
  H   H21       1.0  0.17598  0.38497  0.47165  1.0000
  H   H22       1.0  0.82403  0.61503  0.52835  1.0000
  H   H23       1.0  0.03066  0.01518  0.62245  1.0000
  H   H24       1.0  0.96934  0.98482  0.37755  1.0000
  H   H25       1.0  0.13280  0.14279  0.35256  1.0000
  H   H26       1.0  0.86720  0.85721  0.64744  1.0000
  H   H27       1.0  0.05097  0.19045  0.22112  1.0000
  H   H28       1.0  0.94903  0.80956  0.77888  1.0000
  C   C1        1.0  0.35973  0.81428  0.36072  1.0000
  C   C2        1.0  0.64027  0.18572  0.63928  1.0000
  C   C3        1.0  0.33665  0.70852  0.47206  1.0000
  C   C4        1.0  0.66335  0.29148  0.52794  1.0000
  C   C5        1.0  0.58927  0.65235  0.71587  1.0000
  C   C6        1.0  0.41073  0.34765  0.28413  1.0000
  C   C7        1.0  0.43219  0.83058  0.62676  1.0000
  C   C8        1.0  0.56781  0.16943  0.37324  1.0000
  C   C9        1.0  0.39693  0.27076  0.96946  1.0000
  C   C10       1.0  0.60307  0.72924  0.03054  1.0000
  C   C11       1.0  0.40495  0.38192  0.86063  1.0000
  C   C12       1.0  0.59505  0.61808  0.13937  1.0000
  C   C13       1.0  0.20580  0.71358  0.92339  1.0000
  C   C14       1.0  0.79420  0.28642  0.07661  1.0000
  C   C15       1.0  0.16324  0.57092  0.81059  1.0000
  C   C16       1.0  0.83676  0.42908  0.18941  1.0000
  C   C17       1.0  0.20322  0.06756  0.88879  1.0000
  C   C18       1.0  0.79677  0.93244  0.11121  1.0000
  C   C19       1.0  0.05039  0.14805  0.82721  1.0000
  C   C20       1.0  0.94961  0.85195  0.17280  1.0000
  C   C21       1.0  0.13837  0.30318  0.53521  1.0000
  C   C22       1.0  0.86164  0.69682  0.46479  1.0000
  C   C23       1.0  0.06763  0.11458  0.60741  1.0000
  C   C24       1.0  0.93237  0.88542  0.39259  1.0000
  N   N1        1.0  0.42630  0.71710  0.57512  1.0000
  N   N2        1.0  0.57370  0.28289  0.42488  1.0000
  N   N3        1.0  0.52733  0.60149  0.63081  1.0000
  N   N4        1.0  0.47267  0.39851  0.36919  1.0000
  N   N5        1.0  0.53416  0.79304  0.71669  1.0000
  N   N6        1.0  0.46584  0.20696  0.28331  1.0000
  N   N7        1.0  0.29751  0.51478  0.87034  1.0000
  N   N8        1.0  0.70248  0.48522  0.12966  1.0000
  N   N9        1.0  0.07273  0.18916  0.69817  1.0000
  N   N10       1.0  0.92727  0.81084  0.30183  1.0000
  N   N11       1.0  0.10207  0.69781  0.84205  1.0000
  N   N12       1.0  0.89793  0.30219  0.15795  1.0000
  N   N13       1.0  0.32651  0.60449  0.94338  1.0000
  N   N14       1.0  0.67349  0.39551  0.05662  1.0000
  N   N15       1.0  0.10804  0.18426  0.50188  1.0000
  N   N16       1.0  0.89196  0.81574  0.49812  1.0000
  N   N17       1.0  0.11894  0.31033  0.65389  1.0000
  N   N18       1.0  0.88106  0.68967  0.34611  1.0000
  O   O1        1.0  0.13815  0.11877  0.26763  1.0000
  O   O2        1.0  0.86185  0.88123  0.73237  1.0000
  O   O3        1.0  0.44052  0.90474  0.36939  1.0000
  O   O4        1.0  0.55948  0.09526  0.63061  1.0000
  O   O5        1.0  0.29389  0.80715  0.26392  1.0000
  O   O6        1.0  0.70611  0.19285  0.73608  1.0000
  O   O7        1.0  0.49856  0.15338  0.96822  1.0000
  O   O8        1.0  0.50144  0.84662  0.03178  1.0000
  O   O9        1.0  0.29547  0.29040  0.05371  1.0000
  O   O10       1.0  0.70452  0.70960  0.94629  1.0000
  O   O11       1.0  0.19211  0.04138  0.00403  1.0000
  O   O12       1.0  0.80789  0.95862  0.99597  1.0000
  O   O13       1.0  0.32425  0.03428  0.82178  1.0000
  O   O14       1.0  0.67575  0.96572  0.17822  1.0000
