data_image0
_chemical_formula_structural       Cu4P4H20C28O20
_chemical_formula_sum              "Cu4 P4 H20 C28 O20"
_cell_length_a       5.22274
_cell_length_b       8.1201
_cell_length_c       19.4049
_cell_angle_alpha    102.121
_cell_angle_beta     96.8765
_cell_angle_gamma    89.9928

_space_group_name_H-M_alt    "P 1"
_space_group_IT_number       1

loop_
  _space_group_symop_operation_xyz
  'x, y, z'

loop_
  _atom_site_type_symbol
  _atom_site_label
  _atom_site_symmetry_multiplicity
  _atom_site_fract_x
  _atom_site_fract_y
  _atom_site_fract_z
  _atom_site_occupancy
  Cu  Cu1       1.0  0.24996  0.06212  0.99995  1.0000
  Cu  Cu2       1.0  0.75008  0.93787  0.00006  1.0000
  Cu  Cu3       1.0  0.25002  0.43423  0.99997  1.0000
  Cu  Cu4       1.0  0.75001  0.56575  0.00002  1.0000
  P   P1        1.0  0.21078  0.79393  0.09255  1.0000
  P   P2        1.0  0.28952  0.70112  0.90744  1.0000
  P   P3        1.0  0.78923  0.20605  0.90745  1.0000
  P   P4        1.0  0.71051  0.29888  0.09256  1.0000
  H   H1        1.0  0.83628  0.98081  0.17071  1.0000
  H   H2        1.0  0.66393  0.80964  0.82929  1.0000
  H   H3        1.0  0.16374  0.01921  0.82928  1.0000
  H   H4        1.0  0.33610  0.19035  0.17071  1.0000
  H   H5        1.0  0.78326  0.05094  0.29953  1.0000
  H   H6        1.0  0.71609  0.75091  0.70041  1.0000
  H   H7        1.0  0.21671  0.94909  0.70046  1.0000
  H   H8        1.0  0.28393  0.24907  0.29958  1.0000
  H   H9        1.0  0.46918  0.78263  0.34674  1.0000
  H   H10       1.0  0.03088  0.43473  0.65326  1.0000
  H   H11       1.0  0.53079  0.21740  0.65328  1.0000
  H   H12       1.0  0.96912  0.56528  0.34674  1.0000
  H   H13       1.0  0.52399  0.70924  0.21809  1.0000
  H   H14       1.0  0.97648  0.49024  0.78199  1.0000
  H   H15       1.0  0.47602  0.29076  0.78193  1.0000
  H   H16       1.0  0.02353  0.50976  0.21801  1.0000
  H   H17       1.0  0.18748  0.92226  0.50051  1.0000
  H   H18       1.0  0.31241  0.42141  0.49944  1.0000
  H   H19       1.0  0.81248  0.07775  0.49950  1.0000
  H   H20       1.0  0.68756  0.57861  0.50055  1.0000
  C   C1        1.0  0.18446  0.84168  0.18629  1.0000
  C   C2        1.0  0.31607  0.65453  0.81371  1.0000
  C   C3        1.0  0.81555  0.15831  0.81371  1.0000
  C   C4        1.0  0.68395  0.34547  0.18629  1.0000
  C   C5        1.0  0.97567  0.93844  0.20926  1.0000
  C   C6        1.0  0.52462  0.72848  0.79075  1.0000
  C   C7        1.0  0.02431  0.06156  0.79074  1.0000
  C   C8        1.0  0.47540  0.27151  0.20925  1.0000
  C   C9        1.0  0.94550  0.97765  0.28095  1.0000
  C   C10       1.0  0.55439  0.69586  0.71904  1.0000
  C   C11       1.0  0.05447  0.02235  0.71905  1.0000
  C   C12       1.0  0.44561  0.30413  0.28095  1.0000
  C   C13       1.0  0.12190  0.92040  0.33044  1.0000
  C   C14       1.0  0.37787  0.58902  0.66958  1.0000
  C   C15       1.0  0.87806  0.07962  0.66957  1.0000
  C   C16       1.0  0.62214  0.41097  0.33042  1.0000
  C   C17       1.0  0.33167  0.82490  0.30774  1.0000
  C   C18       1.0  0.16852  0.51600  0.69229  1.0000
  C   C19       1.0  0.66832  0.17510  0.69227  1.0000
  C   C20       1.0  0.83149  0.48400  0.30771  1.0000
  C   C21       1.0  0.36279  0.78524  0.23577  1.0000
  C   C22       1.0  0.13765  0.54839  0.76427  1.0000
  C   C23       1.0  0.63720  0.21477  0.76424  1.0000
  C   C24       1.0  0.86236  0.45161  0.23573  1.0000
  C   C25       1.0  0.07382  0.95906  0.40608  1.0000
  C   C26       1.0  0.42574  0.55228  0.59393  1.0000
  C   C27       1.0  0.92614  0.04095  0.59392  1.0000
  C   C28       1.0  0.57425  0.44774  0.40606  1.0000
  O   O1        1.0  0.35328  0.94386  0.07535  1.0000
  O   O2        1.0  0.14684  0.86829  0.92448  1.0000
  O   O3        1.0  0.64673  0.05613  0.92466  1.0000
  O   O4        1.0  0.85319  0.13172  0.07552  1.0000
  O   O5        1.0  0.35481  0.62864  0.07485  1.0000
  O   O6        1.0  0.14520  0.55384  0.92523  1.0000
  O   O7        1.0  0.64520  0.37135  0.92515  1.0000
  O   O8        1.0  0.85483  0.44615  0.07476  1.0000
  O   O9        1.0  0.92527  0.77803  0.05431  1.0000
  O   O10       1.0  0.57496  0.72357  0.94572  1.0000
  O   O11       1.0  0.07475  0.22195  0.94569  1.0000
  O   O12       1.0  0.42508  0.27642  0.05427  1.0000
  O   O13       1.0  0.23931  0.89474  0.44930  1.0000
  O   O14       1.0  0.26052  0.44454  0.55061  1.0000
  O   O15       1.0  0.76065  0.10528  0.55070  1.0000
  O   O16       1.0  0.73950  0.55546  0.44939  1.0000
  O   O17       1.0  0.88481  0.04413  0.42463  1.0000
  O   O18       1.0  0.61433  0.61922  0.57544  1.0000
  O   O19       1.0  0.11513  0.95586  0.57537  1.0000
  O   O20       1.0  0.38564  0.38082  0.42456  1.0000
