data_image0
_chemical_formula_structural       V4Co2H24C24N4O12
_chemical_formula_sum              "V4 Co2 H24 C24 N4 O12"
_cell_length_a       8.33449
_cell_length_b       8.44187
_cell_length_c       11.1053
_cell_angle_alpha    94.2391
_cell_angle_beta     93.2492
_cell_angle_gamma    106.814

_space_group_name_H-M_alt    "P 1"
_space_group_IT_number       1

loop_
  _space_group_symop_operation_xyz
  'x, y, z'

loop_
  _atom_site_type_symbol
  _atom_site_label
  _atom_site_symmetry_multiplicity
  _atom_site_fract_x
  _atom_site_fract_y
  _atom_site_fract_z
  _atom_site_occupancy
  V   V1        1.0  0.26030  0.74188  0.98289  1.0000
  V   V2        1.0  0.73970  0.25812  0.01711  1.0000
  V   V3        1.0  0.42231  0.09149  0.18258  1.0000
  V   V4        1.0  0.57769  0.90851  0.81741  1.0000
  Co  Co1       1.0  0.18471  0.34316  0.05744  1.0000
  Co  Co2       1.0  0.81529  0.65684  0.94255  1.0000
  H   H1        1.0  0.34179  0.98130  0.52290  1.0000
  H   H2        1.0  0.65821  0.01870  0.47710  1.0000
  H   H3        1.0  0.12913  0.95836  0.48290  1.0000
  H   H4        1.0  0.87087  0.04164  0.51710  1.0000
  H   H5        1.0  0.36578  0.54067  0.51714  1.0000
  H   H6        1.0  0.63422  0.45933  0.48286  1.0000
  H   H7        1.0  0.25798  0.72807  0.63926  1.0000
  H   H8        1.0  0.74202  0.27193  0.36074  1.0000
  H   H9        1.0  0.04380  0.70580  0.59938  1.0000
  H   H10       1.0  0.95620  0.29420  0.40062  1.0000
  H   H11       1.0  0.44819  0.22026  0.66453  1.0000
  H   H12       1.0  0.55181  0.77974  0.33546  1.0000
  H   H13       1.0  0.98219  0.72484  0.35264  1.0000
  H   H14       1.0  0.01781  0.27516  0.64735  1.0000
  H   H15       1.0  0.95942  0.88371  0.71160  1.0000
  H   H16       1.0  0.04057  0.11629  0.28840  1.0000
  H   H17       1.0  0.99760  0.56074  0.16211  1.0000
  H   H18       1.0  0.00241  0.43927  0.83789  1.0000
  H   H19       1.0  0.35992  0.37559  0.31926  1.0000
  H   H20       1.0  0.64008  0.62442  0.68074  1.0000
  H   H21       1.0  0.95746  0.05413  0.90084  1.0000
  H   H22       1.0  0.04254  0.94587  0.09916  1.0000
  H   H23       1.0  0.42379  0.38102  0.85738  1.0000
  H   H24       1.0  0.57621  0.61898  0.14262  1.0000
  C   C1        1.0  0.20524  0.03768  0.66950  1.0000
  C   C2        1.0  0.79476  0.96231  0.33050  1.0000
  C   C3        1.0  0.17533  0.64928  0.45229  1.0000
  C   C4        1.0  0.82466  0.35072  0.54771  1.0000
  C   C5        1.0  0.21563  0.93687  0.55448  1.0000
  C   C6        1.0  0.78436  0.06312  0.44552  1.0000
  C   C7        1.0  0.28197  0.54867  0.44027  1.0000
  C   C8        1.0  0.71804  0.45133  0.55974  1.0000
  C   C9        1.0  0.17115  0.74941  0.56873  1.0000
  C   C10       1.0  0.82885  0.25058  0.43127  1.0000
  C   C11       1.0  0.33531  0.18076  0.71296  1.0000
  C   C12       1.0  0.66469  0.81924  0.28704  1.0000
  C   C13       1.0  0.07020  0.65136  0.34982  1.0000
  C   C14       1.0  0.92980  0.34864  0.65018  1.0000
  C   C15       1.0  0.06621  0.99295  0.73854  1.0000
  C   C16       1.0  0.93379  0.00704  0.26147  1.0000
  C   C17       1.0  0.07764  0.55931  0.24273  1.0000
  C   C18       1.0  0.92236  0.44069  0.75726  1.0000
  C   C19       1.0  0.28090  0.45776  0.33007  1.0000
  C   C20       1.0  0.71911  0.54224  0.66993  1.0000
  C   C21       1.0  0.06364  0.08766  0.84549  1.0000
  C   C22       1.0  0.93636  0.91234  0.15451  1.0000
  C   C23       1.0  0.32334  0.27062  0.82061  1.0000
  C   C24       1.0  0.67666  0.72938  0.17939  1.0000
  N   N1        1.0  0.18955  0.22477  0.88665  1.0000
  N   N2        1.0  0.81045  0.77523  0.11335  1.0000
  N   N3        1.0  0.18128  0.46352  0.23168  1.0000
  N   N4        1.0  0.81873  0.53649  0.76832  1.0000
  O   O1        1.0  0.28774  0.55500  0.00334  1.0000
  O   O2        1.0  0.71226  0.44500  0.99666  1.0000
  O   O3        1.0  0.36383  0.82404  0.85522  1.0000
  O   O4        1.0  0.63617  0.17596  0.14478  1.0000
  O   O5        1.0  0.94643  0.27998  0.04237  1.0000
  O   O6        1.0  0.05357  0.72002  0.95764  1.0000
  O   O7        1.0  0.41822  0.10184  0.32951  1.0000
  O   O8        1.0  0.58178  0.89816  0.67049  1.0000
  O   O9        1.0  0.34332  0.87823  0.11561  1.0000
  O   O10       1.0  0.65668  0.12177  0.88439  1.0000
  O   O11       1.0  0.30406  0.20481  0.12502  1.0000
  O   O12       1.0  0.69594  0.79519  0.87498  1.0000
