data_image0
_chemical_formula_structural       Pr2P4H22C16O14
_chemical_formula_sum              "Pr2 P4 H22 C16 O14"
_cell_length_a       5.62257
_cell_length_b       9.51066
_cell_length_c       11.5884
_cell_angle_alpha    73.6387
_cell_angle_beta     81.2015
_cell_angle_gamma    79.9233

_space_group_name_H-M_alt    "P 1"
_space_group_IT_number       1

loop_
  _space_group_symop_operation_xyz
  'x, y, z'

loop_
  _atom_site_type_symbol
  _atom_site_label
  _atom_site_symmetry_multiplicity
  _atom_site_fract_x
  _atom_site_fract_y
  _atom_site_fract_z
  _atom_site_occupancy
  Pr  Pr1       1.0  0.13828  0.18675  0.99449  1.0000
  Pr  Pr2       1.0  0.86173  0.81325  0.00551  1.0000
  P   P1        1.0  0.79925  0.54668  0.83059  1.0000
  P   P2        1.0  0.20076  0.45332  0.16941  1.0000
  P   P3        1.0  0.32601  0.88485  0.17951  1.0000
  P   P4        1.0  0.67399  0.11515  0.82049  1.0000
  H   H1        1.0  0.66666  0.31339  0.13747  1.0000
  H   H2        1.0  0.33335  0.68661  0.86252  1.0000
  H   H3        1.0  0.63790  0.14811  0.14300  1.0000
  H   H4        1.0  0.36210  0.85189  0.85700  1.0000
  H   H5        1.0  0.51607  0.41638  0.82740  1.0000
  H   H6        1.0  0.48394  0.58361  0.17259  1.0000
  H   H7        1.0  0.80638  0.76167  0.66375  1.0000
  H   H8        1.0  0.19362  0.23832  0.33626  1.0000
  H   H9        1.0  0.09856  0.68132  0.70616  1.0000
  H   H10       1.0  0.90145  0.31868  0.29385  1.0000
  H   H11       1.0  0.61447  0.66340  0.52996  1.0000
  H   H12       1.0  0.38553  0.33660  0.47004  1.0000
  H   H13       1.0  0.32503  0.46845  0.63211  1.0000
  H   H14       1.0  0.67497  0.53155  0.36789  1.0000
  H   H15       1.0  0.16283  0.72236  0.35346  1.0000
  H   H16       1.0  0.83714  0.27765  0.64654  1.0000
  H   H17       1.0  0.43931  0.77062  0.37310  1.0000
  H   H18       1.0  0.56067  0.22937  0.62691  1.0000
  H   H19       1.0  0.42339  0.88352  0.52611  1.0000
  H   H20       1.0  0.57660  0.11649  0.47388  1.0000
  H   H21       1.0  0.79266  0.97040  0.33524  1.0000
  H   H22       1.0  0.20733  0.02960  0.66476  1.0000
  C   C1        1.0  0.92704  0.65614  0.68780  1.0000
  C   C2        1.0  0.07296  0.34386  0.31220  1.0000
  C   C3        1.0  0.96663  0.57714  0.59024  1.0000
  C   C4        1.0  0.03337  0.42287  0.40976  1.0000
  C   C5        1.0  0.78486  0.59248  0.51573  1.0000
  C   C6        1.0  0.21515  0.40752  0.48427  1.0000
  C   C7        1.0  0.18265  0.48263  0.57397  1.0000
  C   C8        1.0  0.81736  0.51738  0.42603  1.0000
  C   C9        1.0  0.25977  0.81739  0.34254  1.0000
  C   C10       1.0  0.74022  0.18261  0.65746  1.0000
  C   C11       1.0  0.12577  0.91576  0.41981  1.0000
  C   C12       1.0  0.87422  0.08425  0.58018  1.0000
  C   C13       1.0  0.23683  0.93510  0.51374  1.0000
  C   C14       1.0  0.76316  0.06490  0.48626  1.0000
  C   C15       1.0  0.88501  0.98204  0.40758  1.0000
  C   C16       1.0  0.11498  0.01797  0.59241  1.0000
  O   O1        1.0  0.75909  0.21659  0.13336  1.0000
  O   O2        1.0  0.24092  0.78341  0.86664  1.0000
  O   O3        1.0  0.95288  0.39647  0.86229  1.0000
  O   O4        1.0  0.04712  0.60353  0.13772  1.0000
  O   O5        1.0  0.53333  0.52561  0.80941  1.0000
  O   O6        1.0  0.46667  0.47439  0.19059  1.0000
  O   O7        1.0  0.76606  0.63866  0.92116  1.0000
  O   O8        1.0  0.23395  0.36134  0.07885  1.0000
  O   O9        1.0  0.08783  0.92380  0.11658  1.0000
  O   O10       1.0  0.91218  0.07620  0.88342  1.0000
  O   O11       1.0  0.44677  0.02770  0.13860  1.0000
  O   O12       1.0  0.55322  0.97230  0.86140  1.0000
  O   O13       1.0  0.50231  0.75627  0.14366  1.0000
  O   O14       1.0  0.49770  0.24373  0.85634  1.0000
