data_image0
_chemical_formula_structural       La2H18C16N2O18
_chemical_formula_sum              "La2 H18 C16 N2 O18"
_cell_length_a       7.86895
_cell_length_b       7.65746
_cell_length_c       9.75735
_cell_angle_alpha    95.4676
_cell_angle_beta     102.433
_cell_angle_gamma    99.2136

_space_group_name_H-M_alt    "P 1"
_space_group_IT_number       1

loop_
  _space_group_symop_operation_xyz
  'x, y, z'

loop_
  _atom_site_type_symbol
  _atom_site_label
  _atom_site_symmetry_multiplicity
  _atom_site_fract_x
  _atom_site_fract_y
  _atom_site_fract_z
  _atom_site_occupancy
  La  La1       1.0  0.21890  0.71499  0.13898  1.0000
  La  La2       1.0  0.78111  0.28501  0.86102  1.0000
  H   H1        1.0  0.24988  0.01769  0.38780  1.0000
  H   H2        1.0  0.75011  0.98231  0.61220  1.0000
  H   H3        1.0  0.04995  0.98815  0.30407  1.0000
  H   H4        1.0  0.95005  0.01185  0.69593  1.0000
  H   H5        1.0  0.40413  0.10057  0.23761  1.0000
  H   H6        1.0  0.59587  0.89943  0.76239  1.0000
  H   H7        1.0  0.42842  0.10110  0.08050  1.0000
  H   H8        1.0  0.57158  0.89890  0.91950  1.0000
  H   H9        1.0  0.83149  0.76027  0.99610  1.0000
  H   H10       1.0  0.16850  0.23972  0.00390  1.0000
  H   H11       1.0  0.90601  0.94927  0.09266  1.0000
  H   H12       1.0  0.09399  0.05072  0.90733  1.0000
  H   H13       1.0  0.97036  0.18590  0.46416  1.0000
  H   H14       1.0  0.02964  0.81410  0.53584  1.0000
  H   H15       1.0  0.17566  0.31724  0.69700  1.0000
  H   H16       1.0  0.82435  0.68276  0.30300  1.0000
  H   H17       1.0  0.41000  0.58862  0.70357  1.0000
  H   H18       1.0  0.59000  0.41138  0.29643  1.0000
  C   C1        1.0  0.96933  0.31398  0.20848  1.0000
  C   C2        1.0  0.03067  0.68602  0.79152  1.0000
  C   C3        1.0  0.08755  0.38532  0.35229  1.0000
  C   C4        1.0  0.91245  0.61468  0.64770  1.0000
  C   C5        1.0  0.07240  0.30277  0.47184  1.0000
  C   C6        1.0  0.92760  0.69724  0.52816  1.0000
  C   C7        1.0  0.18608  0.37711  0.60150  1.0000
  C   C8        1.0  0.81392  0.62288  0.39850  1.0000
  C   C9        1.0  0.31417  0.52773  0.60637  1.0000
  C   C10       1.0  0.68583  0.47228  0.39363  1.0000
  C   C11       1.0  0.32342  0.59918  0.48138  1.0000
  C   C12       1.0  0.67658  0.40082  0.51862  1.0000
  C   C13       1.0  0.46757  0.75110  0.47323  1.0000
  C   C14       1.0  0.53243  0.24891  0.52678  1.0000
  C   C15       1.0  0.53890  0.58689  0.97497  1.0000
  C   C16       1.0  0.46111  0.41309  0.02503  1.0000
  N   N1        1.0  0.20896  0.53162  0.35745  1.0000
  N   N2        1.0  0.79104  0.46839  0.64255  1.0000
  O   O1        1.0  0.95893  0.42518  0.11682  1.0000
  O   O2        1.0  0.04108  0.57482  0.88318  1.0000
  O   O3        1.0  0.10912  0.84626  0.81461  1.0000
  O   O4        1.0  0.89088  0.15374  0.18539  1.0000
  O   O5        1.0  0.47105  0.79166  0.35023  1.0000
  O   O6        1.0  0.52895  0.20834  0.64977  1.0000
  O   O7        1.0  0.57776  0.82191  0.58692  1.0000
  O   O8        1.0  0.42224  0.17809  0.41308  1.0000
  O   O9        1.0  0.14347  0.92253  0.34069  1.0000
  O   O10       1.0  0.85653  0.07747  0.65931  1.0000
  O   O11       1.0  0.36417  0.03232  0.14095  1.0000
  O   O12       1.0  0.63583  0.96768  0.85905  1.0000
  O   O13       1.0  0.93062  0.82811  0.07226  1.0000
  O   O14       1.0  0.06938  0.17189  0.92774  1.0000
  O   O15       1.0  0.47355  0.72364  0.00128  1.0000
  O   O16       1.0  0.52645  0.27634  0.99873  1.0000
  O   O17       1.0  0.33742  0.42098  0.08889  1.0000
  O   O18       1.0  0.66257  0.57901  0.91111  1.0000
