data_image0
_chemical_formula_structural       La2H18C16N2O18
_chemical_formula_sum              "La2 H18 C16 N2 O18"
_cell_length_a       7.87297
_cell_length_b       7.65994
_cell_length_c       9.75383
_cell_angle_alpha    95.4987
_cell_angle_beta     102.399
_cell_angle_gamma    99.2358

_space_group_name_H-M_alt    "P 1"
_space_group_IT_number       1

loop_
  _space_group_symop_operation_xyz
  'x, y, z'

loop_
  _atom_site_type_symbol
  _atom_site_label
  _atom_site_symmetry_multiplicity
  _atom_site_fract_x
  _atom_site_fract_y
  _atom_site_fract_z
  _atom_site_occupancy
  La  La1       1.0  0.28114  0.28506  0.36105  1.0000
  La  La2       1.0  0.71886  0.71493  0.63895  1.0000
  H   H1        1.0  0.66829  0.23967  0.50362  1.0000
  H   H2        1.0  0.33171  0.76032  0.49638  1.0000
  H   H3        1.0  0.59390  0.05054  0.40722  1.0000
  H   H4        1.0  0.40610  0.94946  0.59277  1.0000
  H   H5        1.0  0.24978  0.98213  0.11194  1.0000
  H   H6        1.0  0.75022  0.01787  0.88807  1.0000
  H   H7        1.0  0.44980  0.01232  0.19545  1.0000
  H   H8        1.0  0.55020  0.98768  0.80455  1.0000
  H   H9        1.0  0.09593  0.89922  0.26245  1.0000
  H   H10       1.0  0.90406  0.10077  0.73755  1.0000
  H   H11       1.0  0.07180  0.89905  0.41962  1.0000
  H   H12       1.0  0.92820  0.10095  0.58038  1.0000
  H   H13       1.0  0.08995  0.41165  0.79651  1.0000
  H   H14       1.0  0.91005  0.58835  0.20349  1.0000
  H   H15       1.0  0.32438  0.68284  0.80309  1.0000
  H   H16       1.0  0.67561  0.31716  0.19691  1.0000
  H   H17       1.0  0.52987  0.81416  0.03593  1.0000
  H   H18       1.0  0.47013  0.18585  0.96408  1.0000
  C   C1        1.0  0.03252  0.24902  0.02683  1.0000
  C   C2        1.0  0.96748  0.75098  0.97317  1.0000
  C   C3        1.0  0.17661  0.40091  0.01866  1.0000
  C   C4        1.0  0.82339  0.59909  0.98134  1.0000
  C   C5        1.0  0.18581  0.47238  0.89367  1.0000
  C   C6        1.0  0.81419  0.52761  0.10632  1.0000
  C   C7        1.0  0.31401  0.62285  0.89856  1.0000
  C   C8        1.0  0.68599  0.37716  0.10144  1.0000
  C   C9        1.0  0.42763  0.69735  0.02821  1.0000
  C   C10       1.0  0.57237  0.30266  0.97179  1.0000
  C   C11       1.0  0.41253  0.61479  0.14780  1.0000
  C   C12       1.0  0.58746  0.38522  0.85219  1.0000
  C   C13       1.0  0.53072  0.68593  0.29165  1.0000
  C   C14       1.0  0.46927  0.31407  0.70835  1.0000
  C   C15       1.0  0.96087  0.41304  0.52488  1.0000
  C   C16       1.0  0.03914  0.58695  0.47512  1.0000
  N   N1        1.0  0.29105  0.46849  0.14260  1.0000
  N   N2        1.0  0.70895  0.53151  0.85740  1.0000
  O   O1        1.0  0.02905  0.20858  0.14984  1.0000
  O   O2        1.0  0.97096  0.79142  0.85016  1.0000
  O   O3        1.0  0.92229  0.17832  0.91310  1.0000
  O   O4        1.0  0.07772  0.82168  0.08690  1.0000
  O   O5        1.0  0.54089  0.57472  0.38319  1.0000
  O   O6        1.0  0.45911  0.42529  0.61681  1.0000
  O   O7        1.0  0.60938  0.84612  0.31495  1.0000
  O   O8        1.0  0.39062  0.15388  0.68505  1.0000
  O   O9        1.0  0.02609  0.27630  0.49842  1.0000
  O   O10       1.0  0.97392  0.72369  0.50158  1.0000
  O   O11       1.0  0.83704  0.42107  0.58856  1.0000
  O   O12       1.0  0.16296  0.57892  0.41144  1.0000
  O   O13       1.0  0.56931  0.17175  0.42734  1.0000
  O   O14       1.0  0.43069  0.82825  0.57265  1.0000
  O   O15       1.0  0.35609  0.07753  0.15887  1.0000
  O   O16       1.0  0.64391  0.92247  0.84113  1.0000
  O   O17       1.0  0.13605  0.96759  0.35908  1.0000
  O   O18       1.0  0.86394  0.03241  0.64092  1.0000
