data_image0
_chemical_formula_structural       Sm4H22C22N2O32
_chemical_formula_sum              "Sm4 H22 C22 N2 O32"
_cell_length_a       9.72529
_cell_length_b       9.83792
_cell_length_c       12.1819
_cell_angle_alpha    70.7847
_cell_angle_beta     82.8954
_cell_angle_gamma    63.5697

_space_group_name_H-M_alt    "P 1"
_space_group_IT_number       1

loop_
  _space_group_symop_operation_xyz
  'x, y, z'

loop_
  _atom_site_type_symbol
  _atom_site_label
  _atom_site_symmetry_multiplicity
  _atom_site_fract_x
  _atom_site_fract_y
  _atom_site_fract_z
  _atom_site_occupancy
  Sm  Sm1       1.0  0.26995  0.71882  0.24261  1.0000
  Sm  Sm2       1.0  0.73006  0.28117  0.75738  1.0000
  Sm  Sm3       1.0  0.73569  0.78491  0.26374  1.0000
  Sm  Sm4       1.0  0.26430  0.21509  0.73626  1.0000
  H   H1        1.0  0.77873  0.82991  0.48408  1.0000
  H   H2        1.0  0.22128  0.17009  0.51591  1.0000
  H   H3        1.0  0.94192  0.78405  0.42524  1.0000
  H   H4        1.0  0.05808  0.21595  0.57476  1.0000
  H   H5        1.0  0.48295  0.12873  0.20649  1.0000
  H   H6        1.0  0.51705  0.87127  0.79351  1.0000
  H   H7        1.0  0.41354  0.01530  0.19116  1.0000
  H   H8        1.0  0.58646  0.98470  0.80885  1.0000
  H   H9        1.0  0.24457  0.80831  0.45244  1.0000
  H   H10       1.0  0.75543  0.19170  0.54756  1.0000
  H   H11       1.0  0.40757  0.80474  0.41479  1.0000
  H   H12       1.0  0.59243  0.19526  0.58522  1.0000
  H   H13       1.0  0.93933  0.00170  0.20626  1.0000
  H   H14       1.0  0.06068  0.99830  0.79374  1.0000
  H   H15       1.0  0.05394  0.05218  0.24920  1.0000
  H   H16       1.0  0.94606  0.94781  0.75080  1.0000
  H   H17       1.0  0.73656  0.35181  0.06760  1.0000
  H   H18       1.0  0.26344  0.64818  0.93241  1.0000
  H   H19       1.0  0.01889  0.21224  0.04684  1.0000
  H   H20       1.0  0.98111  0.78775  0.95317  1.0000
  H   H21       1.0  0.19438  0.29593  0.11777  1.0000
  H   H22       1.0  0.80561  0.70407  0.88224  1.0000
  C   C1        1.0  0.59227  0.59030  0.17432  1.0000
  C   C2        1.0  0.40773  0.40971  0.82567  1.0000
  C   C3        1.0  0.75856  0.50557  0.14920  1.0000
  C   C4        1.0  0.24144  0.49444  0.85080  1.0000
  C   C5        1.0  0.81474  0.38391  0.09837  1.0000
  C   C6        1.0  0.18525  0.61609  0.90163  1.0000
  C   C7        1.0  0.97346  0.30647  0.08744  1.0000
  C   C8        1.0  0.02654  0.69352  0.91256  1.0000
  C   C9        1.0  0.07038  0.35272  0.12609  1.0000
  C   C10       1.0  0.92962  0.64728  0.87392  1.0000
  C   C11       1.0  0.00302  0.48195  0.17005  1.0000
  C   C12       1.0  0.99697  0.51805  0.82996  1.0000
  C   C13       1.0  0.08985  0.55851  0.20151  1.0000
  C   C14       1.0  0.91015  0.44148  0.79849  1.0000
  C   C15       1.0  0.70350  0.98673  0.98271  1.0000
  C   C16       1.0  0.29651  0.01327  0.01727  1.0000
  C   C17       1.0  0.77314  0.06692  0.03506  1.0000
  C   C18       1.0  0.22687  0.93308  0.96493  1.0000
  C   C19       1.0  0.64640  0.58965  0.52070  1.0000
  C   C20       1.0  0.35360  0.41035  0.47930  1.0000
  C   C21       1.0  0.81217  0.47561  0.49857  1.0000
  C   C22       1.0  0.18783  0.52439  0.50144  1.0000
  N   N1        1.0  0.85101  0.55443  0.18143  1.0000
  N   N2        1.0  0.14900  0.44557  0.81857  1.0000
  O   O1        1.0  0.56080  0.67739  0.24159  1.0000
  O   O2        1.0  0.43919  0.32261  0.75841  1.0000
  O   O3        1.0  0.49049  0.57321  0.13354  1.0000
  O   O4        1.0  0.50951  0.42681  0.86644  1.0000
  O   O5        1.0  0.00859  0.69606  0.21633  1.0000
  O   O6        1.0  0.99140  0.30395  0.78366  1.0000
  O   O7        1.0  0.23414  0.49284  0.20926  1.0000
  O   O8        1.0  0.76586  0.50716  0.79074  1.0000
  O   O9        1.0  0.67714  0.87373  0.05078  1.0000
  O   O10       1.0  0.32286  0.12626  0.94922  1.0000
  O   O11       1.0  0.78542  0.02121  0.14589  1.0000
  O   O12       1.0  0.21458  0.97878  0.85411  1.0000
  O   O13       1.0  0.68371  0.03969  0.87260  1.0000
  O   O14       1.0  0.31630  0.96031  0.12740  1.0000
  O   O15       1.0  0.81431  0.16767  0.96518  1.0000
  O   O16       1.0  0.18569  0.83231  0.03482  1.0000
  O   O17       1.0  0.57765  0.53509  0.60505  1.0000
  O   O18       1.0  0.42235  0.46492  0.39495  1.0000
  O   O19       1.0  0.59341  0.73068  0.44850  1.0000
  O   O20       1.0  0.40658  0.26933  0.55150  1.0000
  O   O21       1.0  0.86844  0.33674  0.57290  1.0000
  O   O22       1.0  0.13155  0.66326  0.42709  1.0000
  O   O23       1.0  0.87775  0.52502  0.40961  1.0000
  O   O24       1.0  0.12225  0.47498  0.59039  1.0000
  O   O25       1.0  0.82827  0.85176  0.41018  1.0000
  O   O26       1.0  0.17173  0.14824  0.58983  1.0000
  O   O27       1.0  0.48701  0.02243  0.23830  1.0000
  O   O28       1.0  0.51298  0.97758  0.76170  1.0000
  O   O29       1.0  0.30237  0.83695  0.38486  1.0000
  O   O30       1.0  0.69763  0.16305  0.61514  1.0000
  O   O31       1.0  0.04012  0.96166  0.24634  1.0000
  O   O32       1.0  0.95988  0.03834  0.75366  1.0000
