data_image0
_chemical_formula_structural       Er4H22C22N2O32
_chemical_formula_sum              "Er4 H22 C22 N2 O32"
_cell_length_a       7.40576
_cell_length_b       10.6927
_cell_length_c       12.9165
_cell_angle_alpha    95.5123
_cell_angle_beta     103.339
_cell_angle_gamma    107.025

_space_group_name_H-M_alt    "P 1"
_space_group_IT_number       1

loop_
  _space_group_symop_operation_xyz
  'x, y, z'

loop_
  _atom_site_type_symbol
  _atom_site_label
  _atom_site_symmetry_multiplicity
  _atom_site_fract_x
  _atom_site_fract_y
  _atom_site_fract_z
  _atom_site_occupancy
  Er  Er1       1.0  0.32879  0.03831  0.19103  1.0000
  Er  Er2       1.0  0.67121  0.96169  0.80898  1.0000
  Er  Er3       1.0  0.78224  0.68145  0.39994  1.0000
  Er  Er4       1.0  0.21776  0.31856  0.60006  1.0000
  H   H1        1.0  0.89032  0.66399  0.99108  1.0000
  H   H2        1.0  0.10968  0.33599  0.00892  1.0000
  H   H3        1.0  0.71452  0.41628  0.92388  1.0000
  H   H4        1.0  0.28548  0.58371  0.07613  1.0000
  H   H5        1.0  0.56412  0.28051  0.04911  1.0000
  H   H6        1.0  0.43587  0.71949  0.95089  1.0000
  H   H7        1.0  0.96882  0.09657  0.07928  1.0000
  H   H8        1.0  0.03119  0.90343  0.92073  1.0000
  H   H9        1.0  0.06500  0.17977  0.19601  1.0000
  H   H10       1.0  0.93499  0.82023  0.80400  1.0000
  H   H11       1.0  0.09923  0.98584  0.33762  1.0000
  H   H12       1.0  0.90076  0.01415  0.66238  1.0000
  H   H13       1.0  0.27719  0.11344  0.40954  1.0000
  H   H14       1.0  0.72280  0.88655  0.59046  1.0000
  H   H15       1.0  0.10321  0.92964  0.53268  1.0000
  H   H16       1.0  0.89680  0.07036  0.46731  1.0000
  H   H17       1.0  0.15241  0.81008  0.57427  1.0000
  H   H18       1.0  0.84759  0.18991  0.42573  1.0000
  H   H19       1.0  0.40734  0.65239  0.44345  1.0000
  H   H20       1.0  0.59267  0.34761  0.55655  1.0000
  H   H21       1.0  0.51311  0.62625  0.55501  1.0000
  H   H22       1.0  0.48688  0.37376  0.44499  1.0000
  C   C1        1.0  0.83495  0.65233  0.14701  1.0000
  C   C2        1.0  0.16504  0.34766  0.85300  1.0000
  C   C3        1.0  0.82429  0.59888  0.04178  1.0000
  C   C4        1.0  0.17571  0.40111  0.95822  1.0000
  C   C5        1.0  0.72699  0.46295  0.00528  1.0000
  C   C6        1.0  0.27302  0.53704  0.99473  1.0000
  C   C7        1.0  0.64249  0.38648  0.07427  1.0000
  C   C8        1.0  0.35750  0.61352  0.92574  1.0000
  C   C9        1.0  0.65816  0.44864  0.17771  1.0000
  C   C10       1.0  0.34182  0.55136  0.82229  1.0000
  C   C11       1.0  0.94253  0.79523  0.19821  1.0000
  C   C12       1.0  0.05747  0.20477  0.80179  1.0000
  C   C13       1.0  0.57158  0.37878  0.25938  1.0000
  C   C14       1.0  0.42840  0.62123  0.74062  1.0000
  C   C15       1.0  0.60369  0.92420  0.35363  1.0000
  C   C16       1.0  0.39630  0.07580  0.64637  1.0000
  C   C17       1.0  0.47704  0.80301  0.26416  1.0000
  C   C18       1.0  0.52294  0.19698  0.73585  1.0000
  C   C19       1.0  0.39539  0.97771  0.96095  1.0000
  C   C20       1.0  0.60463  0.02230  0.03906  1.0000
  C   C21       1.0  0.94257  0.49370  0.54364  1.0000
  C   C22       1.0  0.05744  0.50632  0.45632  1.0000
  N   N1        1.0  0.75374  0.57843  0.21264  1.0000
  N   N2        1.0  0.24625  0.42157  0.78736  1.0000
  O   O1        1.0  0.02148  0.87493  0.14332  1.0000
  O   O2        1.0  0.97851  0.12506  0.85668  1.0000
  O   O3        1.0  0.94904  0.82612  0.29785  1.0000
  O   O4        1.0  0.05096  0.17389  0.70215  1.0000
  O   O5        1.0  0.58818  0.45144  0.34765  1.0000
  O   O6        1.0  0.41181  0.54857  0.65235  1.0000
  O   O7        1.0  0.49060  0.25464  0.23758  1.0000
  O   O8        1.0  0.50938  0.74537  0.76241  1.0000
  O   O9        1.0  0.56713  0.03176  0.34549  1.0000
  O   O10       1.0  0.43287  0.96824  0.65451  1.0000
  O   O11       1.0  0.73854  0.90750  0.42668  1.0000
  O   O12       1.0  0.26145  0.09249  0.57331  1.0000
  O   O13       1.0  0.50118  0.69245  0.27520  1.0000
  O   O14       1.0  0.49881  0.30755  0.72480  1.0000
  O   O15       1.0  0.36021  0.82588  0.18575  1.0000
  O   O16       1.0  0.63977  0.17411  0.81425  1.0000
  O   O17       1.0  0.37555  0.93714  0.86325  1.0000
  O   O18       1.0  0.62444  0.06287  0.13675  1.0000
  O   O19       1.0  0.25928  0.98586  0.00387  1.0000
  O   O20       1.0  0.74076  0.01416  0.99615  1.0000
  O   O21       1.0  0.84345  0.57114  0.54927  1.0000
  O   O22       1.0  0.15658  0.42888  0.45072  1.0000
  O   O23       1.0  0.04392  0.59452  0.39870  1.0000
  O   O24       1.0  0.95611  0.40549  0.60127  1.0000
  O   O25       1.0  0.09774  0.15219  0.13038  1.0000
  O   O26       1.0  0.90228  0.84781  0.86964  1.0000
  O   O27       1.0  0.20109  0.07050  0.33559  1.0000
  O   O28       1.0  0.79891  0.92949  0.66441  1.0000
  O   O29       1.0  0.04353  0.83297  0.53156  1.0000
  O   O30       1.0  0.95648  0.16703  0.46843  1.0000
  O   O31       1.0  0.53690  0.67436  0.49439  1.0000
  O   O32       1.0  0.46310  0.32565  0.50561  1.0000
