data_image0
_chemical_formula_structural       Tb4H22C22N2O32
_chemical_formula_sum              "Tb4 H22 C22 N2 O32"
_cell_length_a       7.58201
_cell_length_b       10.831
_cell_length_c       12.7795
_cell_angle_alpha    94.9904
_cell_angle_beta     103.515
_cell_angle_gamma    107.575

_space_group_name_H-M_alt    "P 1"
_space_group_IT_number       1

loop_
  _space_group_symop_operation_xyz
  'x, y, z'

loop_
  _atom_site_type_symbol
  _atom_site_label
  _atom_site_symmetry_multiplicity
  _atom_site_fract_x
  _atom_site_fract_y
  _atom_site_fract_z
  _atom_site_occupancy
  Tb  Tb1       1.0  0.82482  0.53687  0.19256  1.0000
  Tb  Tb2       1.0  0.17517  0.46313  0.80743  1.0000
  Tb  Tb3       1.0  0.27670  0.17894  0.39900  1.0000
  Tb  Tb4       1.0  0.72329  0.82106  0.60101  1.0000
  H   H1        1.0  0.46138  0.59401  0.08495  1.0000
  H   H2        1.0  0.53861  0.40599  0.91503  1.0000
  H   H3        1.0  0.55764  0.67431  0.20335  1.0000
  H   H4        1.0  0.44235  0.32569  0.79663  1.0000
  H   H5        1.0  0.58683  0.47091  0.33318  1.0000
  H   H6        1.0  0.41317  0.52909  0.66682  1.0000
  H   H7        1.0  0.76098  0.58396  0.41978  1.0000
  H   H8        1.0  0.23903  0.41605  0.58021  1.0000
  H   H9        1.0  0.89933  0.12188  0.43753  1.0000
  H   H10       1.0  0.10066  0.87811  0.56248  1.0000
  H   H11       1.0  0.01118  0.12447  0.55699  1.0000
  H   H12       1.0  0.98882  0.87553  0.44302  1.0000
  H   H13       1.0  0.59813  0.42840  0.53615  1.0000
  H   H14       1.0  0.40187  0.57160  0.46385  1.0000
  H   H15       1.0  0.66177  0.31237  0.56830  1.0000
  H   H16       1.0  0.33823  0.68764  0.43170  1.0000
  H   H17       1.0  0.06041  0.78094  0.04262  1.0000
  H   H18       1.0  0.93961  0.21906  0.95739  1.0000
  H   H19       1.0  0.21090  0.91534  0.91631  1.0000
  H   H20       1.0  0.78913  0.08465  0.08371  1.0000
  H   H21       1.0  0.38601  0.16036  0.98370  1.0000
  H   H22       1.0  0.61401  0.83963  0.01631  1.0000
  C   C1        1.0  0.55490  0.00816  0.45524  1.0000
  C   C2        1.0  0.44509  0.99184  0.54476  1.0000
  C   C3        1.0  0.97554  0.30275  0.26408  1.0000
  C   C4        1.0  0.02447  0.69725  0.73591  1.0000
  C   C5        1.0  0.10154  0.42151  0.35558  1.0000
  C   C6        1.0  0.89847  0.57850  0.64442  1.0000
  C   C7        1.0  0.10212  0.52181  0.04039  1.0000
  C   C8        1.0  0.89786  0.47819  0.95959  1.0000
  C   C9        1.0  0.06530  0.87782  0.25387  1.0000
  C   C10       1.0  0.93468  0.12219  0.74613  1.0000
  C   C11       1.0  0.15145  0.94750  0.17150  1.0000
  C   C12       1.0  0.84855  0.05250  0.82850  1.0000
  C   C13       1.0  0.13742  0.88586  0.06767  1.0000
  C   C14       1.0  0.86259  0.11414  0.93234  1.0000
  C   C15       1.0  0.22233  0.96148  0.99809  1.0000
  C   C16       1.0  0.77769  0.03852  0.00191  1.0000
  C   C17       1.0  0.31871  0.09597  0.03457  1.0000
  C   C18       1.0  0.68130  0.90403  0.96544  1.0000
  C   C19       1.0  0.32748  0.14907  0.14012  1.0000
  C   C20       1.0  0.67252  0.85093  0.85989  1.0000
  C   C21       1.0  0.43450  0.29044  0.19105  1.0000
  C   C22       1.0  0.56550  0.70955  0.80896  1.0000
  N   N1        1.0  0.24525  0.07607  0.20622  1.0000
  N   N2        1.0  0.75474  0.92393  0.79378  1.0000
  O   O1        1.0  0.53347  0.09280  0.39544  1.0000
  O   O2        1.0  0.46652  0.90720  0.60455  1.0000
  O   O3        1.0  0.34111  0.06312  0.54982  1.0000
  O   O4        1.0  0.65889  0.93688  0.45019  1.0000
  O   O5        1.0  0.00099  0.19374  0.27220  1.0000
  O   O6        1.0  0.99902  0.80627  0.72780  1.0000
  O   O7        1.0  0.85714  0.32571  0.18707  1.0000
  O   O8        1.0  0.14289  0.67430  0.81293  1.0000
  O   O9        1.0  0.23673  0.40473  0.42760  1.0000
  O   O10       1.0  0.76327  0.59528  0.57240  1.0000
  O   O11       1.0  0.06436  0.52730  0.35053  1.0000
  O   O12       1.0  0.93566  0.47271  0.64947  1.0000
  O   O13       1.0  0.12003  0.56279  0.13846  1.0000
  O   O14       1.0  0.87995  0.43721  0.86152  1.0000
  O   O15       1.0  0.23664  0.51229  0.99915  1.0000
  O   O16       1.0  0.76334  0.48770  0.00083  1.0000
  O   O17       1.0  0.98495  0.75492  0.23206  1.0000
  O   O18       1.0  0.01504  0.24509  0.76794  1.0000
  O   O19       1.0  0.08144  0.94910  0.34270  1.0000
  O   O20       1.0  0.91854  0.05090  0.65730  1.0000
  O   O21       1.0  0.43551  0.32197  0.29059  1.0000
  O   O22       1.0  0.56449  0.67803  0.70941  1.0000
  O   O23       1.0  0.51848  0.36842  0.13679  1.0000
  O   O24       1.0  0.48153  0.63157  0.86322  1.0000
  O   O25       1.0  0.58835  0.64789  0.13670  1.0000
  O   O26       1.0  0.41163  0.35210  0.86328  1.0000
  O   O27       1.0  0.69566  0.55557  0.34157  1.0000
  O   O28       1.0  0.30434  0.44442  0.65842  1.0000
  O   O29       1.0  0.02628  0.16194  0.48969  1.0000
  O   O30       1.0  0.97372  0.83805  0.51032  1.0000
  O   O31       1.0  0.54693  0.33203  0.53296  1.0000
  O   O32       1.0  0.45307  0.66797  0.46704  1.0000
