data_image0
_chemical_formula_structural       Nd4H22C22N2O32
_chemical_formula_sum              "Nd4 H22 C22 N2 O32"
_cell_length_a       9.71973
_cell_length_b       9.78489
_cell_length_c       12.427
_cell_angle_alpha    70.7375
_cell_angle_beta     81.9653
_cell_angle_gamma    63.7305

_space_group_name_H-M_alt    "P 1"
_space_group_IT_number       1

loop_
  _space_group_symop_operation_xyz
  'x, y, z'

loop_
  _atom_site_type_symbol
  _atom_site_label
  _atom_site_symmetry_multiplicity
  _atom_site_fract_x
  _atom_site_fract_y
  _atom_site_fract_z
  _atom_site_occupancy
  Nd  Nd1       1.0  0.26515  0.21889  0.23431  1.0000
  Nd  Nd2       1.0  0.73485  0.78111  0.76569  1.0000
  Nd  Nd3       1.0  0.73348  0.27777  0.25958  1.0000
  Nd  Nd4       1.0  0.26653  0.72223  0.74042  1.0000
  H   H1        1.0  0.22119  0.15669  0.01786  1.0000
  H   H2        1.0  0.77882  0.84331  0.98214  1.0000
  H   H3        1.0  0.05585  0.22744  0.07303  1.0000
  H   H4        1.0  0.94416  0.77254  0.92696  1.0000
  H   H5        1.0  0.53484  0.86395  0.28662  1.0000
  H   H6        1.0  0.46515  0.13606  0.71338  1.0000
  H   H7        1.0  0.58351  0.98054  0.32300  1.0000
  H   H8        1.0  0.41648  0.01947  0.67700  1.0000
  H   H9        1.0  0.68420  0.04798  0.17051  1.0000
  H   H10       1.0  0.31579  0.95202  0.82949  1.0000
  H   H11       1.0  0.60430  0.20618  0.07863  1.0000
  H   H12       1.0  0.39570  0.79382  0.92137  1.0000
  H   H13       1.0  0.99451  0.01719  0.17994  1.0000
  H   H14       1.0  0.00548  0.98282  0.82007  1.0000
  H   H15       1.0  0.06077  0.99585  0.29586  1.0000
  H   H16       1.0  0.93923  0.00415  0.70414  1.0000
  H   H17       1.0  0.26301  0.64762  0.43512  1.0000
  H   H18       1.0  0.73699  0.35236  0.56488  1.0000
  H   H19       1.0  0.98020  0.79036  0.45483  1.0000
  H   H20       1.0  0.01980  0.20965  0.54517  1.0000
  H   H21       1.0  0.80554  0.70605  0.38628  1.0000
  H   H22       1.0  0.19446  0.29395  0.61372  1.0000
  C   C1        1.0  0.40753  0.41076  0.32812  1.0000
  C   C2        1.0  0.59247  0.58924  0.67187  1.0000
  C   C3        1.0  0.24081  0.49684  0.35202  1.0000
  C   C4        1.0  0.75919  0.50316  0.64798  1.0000
  C   C5        1.0  0.18448  0.61726  0.40397  1.0000
  C   C6        1.0  0.81552  0.38274  0.59603  1.0000
  C   C7        1.0  0.02593  0.69569  0.41489  1.0000
  C   C8        1.0  0.97407  0.30431  0.58510  1.0000
  C   C9        1.0  0.92944  0.64971  0.37678  1.0000
  C   C10       1.0  0.07055  0.35030  0.62321  1.0000
  C   C11       1.0  0.99626  0.52241  0.33094  1.0000
  C   C12       1.0  0.00374  0.47761  0.66905  1.0000
  C   C13       1.0  0.90862  0.44807  0.29826  1.0000
  C   C14       1.0  0.09138  0.55194  0.70173  1.0000
  C   C15       1.0  0.29948  0.01496  0.51246  1.0000
  C   C16       1.0  0.70050  0.98506  0.48753  1.0000
  C   C17       1.0  0.22414  0.93680  0.46425  1.0000
  C   C18       1.0  0.77586  0.06321  0.53576  1.0000
  C   C19       1.0  0.35272  0.41815  0.97771  1.0000
  C   C20       1.0  0.64728  0.58183  0.02230  1.0000
  C   C21       1.0  0.18523  0.52907  0.99985  1.0000
  C   C22       1.0  0.81477  0.47091  0.00016  1.0000
  N   N1        1.0  0.14832  0.44999  0.31828  1.0000
  N   N2        1.0  0.85168  0.55002  0.68171  1.0000
  O   O1        1.0  0.44046  0.32494  0.26042  1.0000
  O   O2        1.0  0.55954  0.67507  0.73958  1.0000
  O   O3        1.0  0.50872  0.42498  0.37057  1.0000
  O   O4        1.0  0.49129  0.57501  0.62943  1.0000
  O   O5        1.0  0.98920  0.30965  0.28330  1.0000
  O   O6        1.0  0.01080  0.69036  0.71669  1.0000
  O   O7        1.0  0.76470  0.51522  0.28978  1.0000
  O   O8        1.0  0.23530  0.48479  0.71021  1.0000
  O   O9        1.0  0.16765  0.14905  0.09027  1.0000
  O   O10       1.0  0.83236  0.85094  0.90972  1.0000
  O   O11       1.0  0.52732  0.97233  0.26371  1.0000
  O   O12       1.0  0.47268  0.02767  0.73629  1.0000
  O   O13       1.0  0.32354  0.96048  0.61969  1.0000
  O   O14       1.0  0.67645  0.03956  0.38031  1.0000
  O   O15       1.0  0.32725  0.12726  0.44459  1.0000
  O   O16       1.0  0.67275  0.87274  0.55542  1.0000
  O   O17       1.0  0.17874  0.83958  0.53481  1.0000
  O   O18       1.0  0.82128  0.16043  0.46520  1.0000
  O   O19       1.0  0.21249  0.98060  0.35581  1.0000
  O   O20       1.0  0.78750  0.01940  0.64420  1.0000
  O   O21       1.0  0.41976  0.47352  0.89252  1.0000
  O   O22       1.0  0.58023  0.52647  0.10749  1.0000
  O   O23       1.0  0.40883  0.27858  0.04950  1.0000
  O   O24       1.0  0.59117  0.72140  0.95050  1.0000
  O   O25       1.0  0.12546  0.66350  0.92325  1.0000
  O   O26       1.0  0.87454  0.33648  0.07674  1.0000
  O   O27       1.0  0.12109  0.48085  0.08973  1.0000
  O   O28       1.0  0.87891  0.51914  0.91026  1.0000
  O   O29       1.0  0.70073  0.14239  0.12496  1.0000
  O   O30       1.0  0.29927  0.85760  0.87505  1.0000
  O   O31       1.0  0.96437  0.02335  0.25684  1.0000
  O   O32       1.0  0.03563  0.97665  0.74316  1.0000
