data_image0
_chemical_formula_structural       Cu2H26C14N4O10
_chemical_formula_sum              "Cu2 H26 C14 N4 O10"
_cell_length_a       7.50281
_cell_length_b       8.77718
_cell_length_c       8.81327
_cell_angle_alpha    100.547
_cell_angle_beta     93.0608
_cell_angle_gamma    115.808

_space_group_name_H-M_alt    "P 1"
_space_group_IT_number       1

loop_
  _space_group_symop_operation_xyz
  'x, y, z'

loop_
  _atom_site_type_symbol
  _atom_site_label
  _atom_site_symmetry_multiplicity
  _atom_site_fract_x
  _atom_site_fract_y
  _atom_site_fract_z
  _atom_site_occupancy
  Cu  Cu1       1.0  0.50000  0.00000  1.00000  1.0000
  Cu  Cu2       1.0  0.00000  0.50000  1.00000  1.0000
  H   H1        1.0  0.23072  0.90853  0.17038  1.0000
  H   H2        1.0  0.76928  0.09147  0.82961  1.0000
  H   H3        1.0  0.27912  0.09912  0.13039  1.0000
  H   H4        1.0  0.72088  0.90089  0.86961  1.0000
  H   H5        1.0  0.83604  0.67844  0.95232  1.0000
  H   H6        1.0  0.16395  0.32156  0.04769  1.0000
  H   H7        1.0  0.02538  0.72657  0.85115  1.0000
  H   H8        1.0  0.97462  0.27343  0.14886  1.0000
  H   H9        1.0  0.46971  0.69423  0.01209  1.0000
  H   H10       1.0  0.53030  0.30577  0.98791  1.0000
  H   H11       1.0  0.30687  0.61591  0.85733  1.0000
  H   H12       1.0  0.69314  0.38409  0.14267  1.0000
  H   H13       1.0  0.50547  0.03992  0.37863  1.0000
  H   H14       1.0  0.49453  0.96008  0.62137  1.0000
  H   H15       1.0  0.34385  0.13945  0.40887  1.0000
  H   H16       1.0  0.65615  0.86054  0.59113  1.0000
  H   H17       1.0  0.57229  0.24621  0.33492  1.0000
  H   H18       1.0  0.42771  0.75379  0.66508  1.0000
  H   H19       1.0  0.89634  0.20853  0.41866  1.0000
  H   H20       1.0  0.10366  0.79148  0.58134  1.0000
  H   H21       1.0  0.62797  0.41645  0.75291  1.0000
  H   H22       1.0  0.37204  0.58354  0.24709  1.0000
  H   H23       1.0  0.70452  0.60544  0.67566  1.0000
  H   H24       1.0  0.29548  0.39456  0.32434  1.0000
  H   H25       1.0  0.82981  0.47392  0.64183  1.0000
  H   H26       1.0  0.17020  0.52609  0.35817  1.0000
  C   C1        1.0  0.44705  0.11966  0.33272  1.0000
  C   C2        1.0  0.55295  0.88034  0.66728  1.0000
  C   C3        1.0  0.77448  0.91991  0.19241  1.0000
  C   C4        1.0  0.22552  0.08007  0.80758  1.0000
  C   C5        1.0  0.89657  0.96126  0.34883  1.0000
  C   C6        1.0  0.10343  0.03874  0.65116  1.0000
  C   C7        1.0  0.94408  0.11809  0.45473  1.0000
  C   C8        1.0  0.05593  0.88191  0.54526  1.0000
  C   C9        1.0  0.95377  0.84153  0.39514  1.0000
  C   C10       1.0  0.04623  0.15848  0.60486  1.0000
  C   C11       1.0  0.91724  0.67310  0.28752  1.0000
  C   C12       1.0  0.08275  0.32690  0.71248  1.0000
  C   C13       1.0  0.75780  0.52518  0.72772  1.0000
  C   C14       1.0  0.24220  0.47482  0.27228  1.0000
  N   N1        1.0  0.34423  0.03072  0.17153  1.0000
  N   N2        1.0  0.65577  0.96928  0.82847  1.0000
  N   N3        1.0  0.90062  0.62508  0.87272  1.0000
  N   N4        1.0  0.09937  0.37492  0.12728  1.0000
  O   O1        1.0  0.74339  0.04332  0.15816  1.0000
  O   O2        1.0  0.25660  0.95667  0.84184  1.0000
  O   O3        1.0  0.70607  0.76766  0.10747  1.0000
  O   O4        1.0  0.29393  0.23234  0.89254  1.0000
  O   O5        1.0  0.78685  0.53272  0.30981  1.0000
  O   O6        1.0  0.21315  0.46728  0.69019  1.0000
  O   O7        1.0  0.03795  0.69116  0.18585  1.0000
  O   O8        1.0  0.96204  0.30884  0.81416  1.0000
  O   O9        1.0  0.34319  0.68981  0.96609  1.0000
  O   O10       1.0  0.65681  0.31020  0.03391  1.0000
