data_image0
_chemical_formula_structural       Cu2H14C10N4O8
_chemical_formula_sum              "Cu2 H14 C10 N4 O8"
_cell_length_a       7.24125
_cell_length_b       7.25044
_cell_length_c       7.70026
_cell_angle_alpha    88.9842
_cell_angle_beta     77.1128
_cell_angle_gamma    87.0154

_space_group_name_H-M_alt    "P 1"
_space_group_IT_number       1

loop_
  _space_group_symop_operation_xyz
  'x, y, z'

loop_
  _atom_site_type_symbol
  _atom_site_label
  _atom_site_symmetry_multiplicity
  _atom_site_fract_x
  _atom_site_fract_y
  _atom_site_fract_z
  _atom_site_occupancy
  Cu  Cu1       1.0  0.36185  0.20855  0.52664  1.0000
  Cu  Cu2       1.0  0.63816  0.79144  0.47336  1.0000
  H   H1        1.0  0.68055  0.30439  0.57156  1.0000
  H   H2        1.0  0.31946  0.69563  0.42843  1.0000
  H   H3        1.0  0.55908  0.21141  0.75505  1.0000
  H   H4        1.0  0.44094  0.78861  0.24495  1.0000
  H   H5        1.0  0.50955  0.43354  0.71203  1.0000
  H   H6        1.0  0.49044  0.56647  0.28796  1.0000
  H   H7        1.0  0.15188  0.47239  0.70076  1.0000
  H   H8        1.0  0.84811  0.52762  0.29922  1.0000
  H   H9        1.0  0.10397  0.27574  0.81202  1.0000
  H   H10       1.0  0.89603  0.72428  0.18798  1.0000
  H   H11       1.0  0.02608  0.32050  0.62438  1.0000
  H   H12       1.0  0.97392  0.67951  0.37561  1.0000
  H   H13       1.0  0.68674  0.02086  0.92135  1.0000
  H   H14       1.0  0.31326  0.97912  0.07866  1.0000
  C   C1        1.0  0.05906  0.16716  0.32464  1.0000
  C   C2        1.0  0.94095  0.83283  0.67537  1.0000
  C   C3        1.0  0.02548  0.08344  0.15693  1.0000
  C   C4        1.0  0.97451  0.91655  0.84305  1.0000
  C   C5        1.0  0.82460  0.01389  0.95660  1.0000
  C   C6        1.0  0.17541  0.98610  0.04341  1.0000
  C   C7        1.0  0.84740  0.09833  0.11157  1.0000
  C   C8        1.0  0.15258  0.90168  0.88846  1.0000
  C   C9        1.0  0.67678  0.19792  0.22555  1.0000
  C   C10       1.0  0.32321  0.80206  0.77446  1.0000
  N   N1        1.0  0.54896  0.30475  0.65637  1.0000
  N   N2        1.0  0.45105  0.69526  0.34363  1.0000
  N   N3        1.0  0.13611  0.33362  0.68772  1.0000
  N   N4        1.0  0.86389  0.66638  0.31227  1.0000
  O   O1        1.0  0.58532  0.09736  0.35259  1.0000
  O   O2        1.0  0.41468  0.90262  0.64739  1.0000
  O   O3        1.0  0.63140  0.35903  0.18550  1.0000
  O   O4        1.0  0.36860  0.64096  0.81451  1.0000
  O   O5        1.0  0.21445  0.10848  0.36536  1.0000
  O   O6        1.0  0.78556  0.89151  0.63465  1.0000
  O   O7        1.0  0.93883  0.28406  0.40929  1.0000
  O   O8        1.0  0.06119  0.71595  0.59071  1.0000
