data_image0
_chemical_formula_structural       Mn2Cu2H34C26N6O18
_chemical_formula_sum              "Mn2 Cu2 H34 C26 N6 O18"
_cell_length_a       9.37644
_cell_length_b       9.56266
_cell_length_c       10.7369
_cell_angle_alpha    82.0575
_cell_angle_beta     71.6322
_cell_angle_gamma    82.4434

_space_group_name_H-M_alt    "P 1"
_space_group_IT_number       1

loop_
  _space_group_symop_operation_xyz
  'x, y, z'

loop_
  _atom_site_type_symbol
  _atom_site_label
  _atom_site_symmetry_multiplicity
  _atom_site_fract_x
  _atom_site_fract_y
  _atom_site_fract_z
  _atom_site_occupancy
  Mn  Mn1       1.0  0.16040  0.00707  0.73923  1.0000
  Mn  Mn2       1.0  0.83984  0.99304  0.25868  1.0000
  Cu  Cu1       1.0  0.01299  0.57952  0.65824  1.0000
  Cu  Cu2       1.0  0.98719  0.42061  0.34210  1.0000
  H   H1        1.0  0.88969  0.81393  0.74142  1.0000
  H   H2        1.0  0.11125  0.18556  0.26194  1.0000
  H   H3        1.0  0.76982  0.73893  0.69367  1.0000
  H   H4        1.0  0.23047  0.26189  0.30956  1.0000
  H   H5        1.0  0.42512  0.11644  0.72389  1.0000
  H   H6        1.0  0.57273  0.88595  0.28020  1.0000
  H   H7        1.0  0.43132  0.95243  0.74488  1.0000
  H   H8        1.0  0.56910  0.05010  0.26051  1.0000
  H   H9        1.0  0.03530  0.85717  0.00260  1.0000
  H   H10       1.0  0.96465  0.14315  0.99587  1.0000
  H   H11       1.0  0.08312  0.77661  0.87045  1.0000
  H   H12       1.0  0.91728  0.22380  0.12796  1.0000
  H   H13       1.0  0.91639  0.03623  0.63958  1.0000
  H   H14       1.0  0.08264  0.96287  0.35880  1.0000
  H   H15       1.0  0.02927  0.89595  0.57694  1.0000
  H   H16       1.0  0.96937  0.10278  0.42227  1.0000
  H   H17       1.0  0.85370  0.40911  0.98729  1.0000
  H   H18       1.0  0.14583  0.58731  0.01190  1.0000
  H   H19       1.0  0.75818  0.31291  0.91382  1.0000
  H   H20       1.0  0.24126  0.68580  0.08362  1.0000
  H   H21       1.0  0.63803  0.53710  0.82963  1.0000
  H   H22       1.0  0.36228  0.46399  0.17033  1.0000
  H   H23       1.0  0.60662  0.52700  0.00120  1.0000
  H   H24       1.0  0.39332  0.47104  0.99900  1.0000
  H   H25       1.0  0.66308  0.76469  0.92390  1.0000
  H   H26       1.0  0.33942  0.23359  0.08038  1.0000
  H   H27       1.0  0.83234  0.67922  0.94892  1.0000
  H   H28       1.0  0.17008  0.31605  0.05330  1.0000
  H   H29       1.0  0.42892  0.26773  0.46453  1.0000
  H   H30       1.0  0.57212  0.73290  0.53483  1.0000
  H   H31       1.0  0.67873  0.57975  0.18499  1.0000
  H   H32       1.0  0.32096  0.42189  0.81481  1.0000
  H   H33       1.0  0.44776  0.75427  0.24110  1.0000
  H   H34       1.0  0.55145  0.24668  0.75878  1.0000
  C   C1        1.0  0.16034  0.30939  0.62746  1.0000
  C   C2        1.0  0.83997  0.69073  0.37175  1.0000
  C   C3        1.0  0.02907  0.30081  0.75438  1.0000
  C   C4        1.0  0.97099  0.69893  0.24454  1.0000
  C   C5        1.0  0.81145  0.41219  0.90186  1.0000
  C   C6        1.0  0.18810  0.58617  0.09710  1.0000
  C   C7        1.0  0.69392  0.53889  0.90534  1.0000
  C   C8        1.0  0.30625  0.46011  0.09510  1.0000
  C   C9        1.0  0.75560  0.68173  0.88928  1.0000
  C   C10       1.0  0.24596  0.31627  0.11326  1.0000
  C   C11       1.0  0.19719  0.73859  0.41838  1.0000
  C   C12       1.0  0.80157  0.26092  0.58092  1.0000
  C   C13       1.0  0.31514  0.61526  0.39246  1.0000
  C   C14       1.0  0.68455  0.38502  0.60711  1.0000
  C   C15       1.0  0.30554  0.47512  0.45920  1.0000
  C   C16       1.0  0.69479  0.52517  0.54032  1.0000
  C   C17       1.0  0.43288  0.37566  0.41768  1.0000
  C   C18       1.0  0.56786  0.62502  0.58170  1.0000
  C   C19       1.0  0.56555  0.41279  0.32207  1.0000
  C   C20       1.0  0.43494  0.58838  0.67717  1.0000
  C   C21       1.0  0.69933  0.30516  0.28515  1.0000
  C   C22       1.0  0.30138  0.69633  0.71353  1.0000
  C   C23       1.0  0.57452  0.55119  0.25916  1.0000
  C   C24       1.0  0.42532  0.45013  0.74046  1.0000
  C   C25       1.0  0.44874  0.64785  0.29266  1.0000
  C   C26       1.0  0.55082  0.35306  0.70704  1.0000
  N   N1        1.0  0.17910  0.43964  0.56466  1.0000
  N   N2        1.0  0.82124  0.56055  0.43492  1.0000
  N   N3        1.0  0.93824  0.41580  0.78111  1.0000
  N   N4        1.0  0.06149  0.58372  0.21803  1.0000
  N   N5        1.0  0.84143  0.72063  0.75045  1.0000
  N   N6        1.0  0.15948  0.27910  0.25218  1.0000
  O   O1        1.0  0.23839  0.19265  0.59760  1.0000
  O   O2        1.0  0.76223  0.80762  0.40127  1.0000
  O   O3        1.0  0.01878  0.18006  0.82530  1.0000
  O   O4        1.0  0.98121  0.81944  0.17326  1.0000
  O   O5        1.0  0.07414  0.73179  0.51621  1.0000
  O   O6        1.0  0.92499  0.26779  0.48358  1.0000
  O   O7        1.0  0.22198  0.85215  0.34297  1.0000
  O   O8        1.0  0.77561  0.14689  0.65545  1.0000
  O   O9        1.0  0.82479  0.35004  0.21535  1.0000
  O   O10       1.0  0.17550  0.65160  0.78252  1.0000
  O   O11       1.0  0.67933  0.17410  0.32466  1.0000
  O   O12       1.0  0.32193  0.82735  0.67451  1.0000
  O   O13       1.0  0.38102  0.03811  0.78679  1.0000
  O   O14       1.0  0.61566  0.96441  0.21683  1.0000
  O   O15       1.0  0.04431  0.87067  0.90715  1.0000
  O   O16       1.0  0.95538  0.12966  0.09135  1.0000
  O   O17       1.0  0.00704  0.96526  0.64303  1.0000
  O   O18       1.0  0.99296  0.03508  0.35465  1.0000
