data_image0
_chemical_formula_structural       Zn2H36C44N4O12
_chemical_formula_sum              "Zn2 H36 C44 N4 O12"
_cell_length_a       9.43395
_cell_length_b       9.71162
_cell_length_c       11.4831
_cell_angle_alpha    90.0002
_cell_angle_beta     90.0001
_cell_angle_gamma    106.764

_space_group_name_H-M_alt    "P 1"
_space_group_IT_number       1

loop_
  _space_group_symop_operation_xyz
  'x, y, z'

loop_
  _atom_site_type_symbol
  _atom_site_label
  _atom_site_symmetry_multiplicity
  _atom_site_fract_x
  _atom_site_fract_y
  _atom_site_fract_z
  _atom_site_occupancy
  Zn  Zn1       1.0  0.75000  0.50000  0.91857  1.0000
  Zn  Zn2       1.0  0.25000  0.50000  0.08143  1.0000
  H   H1        1.0  0.69043  0.72842  0.88097  1.0000
  H   H2        1.0  0.80957  0.27158  0.88097  1.0000
  H   H3        1.0  0.30957  0.27158  0.11903  1.0000
  H   H4        1.0  0.19043  0.72842  0.11903  1.0000
  H   H5        1.0  0.56077  0.66118  0.97785  1.0000
  H   H6        1.0  0.93923  0.33881  0.97785  1.0000
  H   H7        1.0  0.43923  0.33881  0.02215  1.0000
  H   H8        1.0  0.06077  0.66118  0.02215  1.0000
  H   H9        1.0  0.88771  0.36872  0.71542  1.0000
  H   H10       1.0  0.61230  0.63129  0.71542  1.0000
  H   H11       1.0  0.11230  0.63129  0.28458  1.0000
  H   H12       1.0  0.38771  0.36872  0.28458  1.0000
  H   H13       1.0  0.88539  0.35480  0.49833  1.0000
  H   H14       1.0  0.61461  0.64521  0.49833  1.0000
  H   H15       1.0  0.11461  0.64521  0.50167  1.0000
  H   H16       1.0  0.38539  0.35479  0.50167  1.0000
  H   H17       1.0  0.70282  0.26840  0.33295  1.0000
  H   H18       1.0  0.79717  0.73160  0.33295  1.0000
  H   H19       1.0  0.29717  0.73161  0.66705  1.0000
  H   H20       1.0  0.20282  0.26839  0.66705  1.0000
  H   H21       1.0  0.70237  0.27827  0.11587  1.0000
  H   H22       1.0  0.79763  0.72173  0.11587  1.0000
  H   H23       1.0  0.29762  0.72173  0.88414  1.0000
  H   H24       1.0  0.20237  0.27827  0.88413  1.0000
  H   H25       1.0  0.12408  0.91806  0.04572  1.0000
  H   H26       1.0  0.37593  0.08194  0.04572  1.0000
  H   H27       1.0  0.87593  0.08194  0.95428  1.0000
  H   H28       1.0  0.62407  0.91806  0.95428  1.0000
  H   H29       1.0  0.98709  0.84771  0.64226  1.0000
  H   H30       1.0  0.51291  0.15229  0.64226  1.0000
  H   H31       1.0  0.01291  0.15229  0.35774  1.0000
  H   H32       1.0  0.48709  0.84771  0.35773  1.0000
  H   H33       1.0  0.11839  0.92565  0.45524  1.0000
  H   H34       1.0  0.38161  0.07435  0.45524  1.0000
  H   H35       1.0  0.88161  0.07435  0.54476  1.0000
  H   H36       1.0  0.61839  0.92565  0.54476  1.0000
  C   C1        1.0  0.82520  0.42504  0.66393  1.0000
  C   C2        1.0  0.67481  0.57497  0.66393  1.0000
  C   C3        1.0  0.17481  0.57497  0.33607  1.0000
  C   C4        1.0  0.32519  0.42503  0.33608  1.0000
  C   C5        1.0  0.82488  0.41920  0.54295  1.0000
  C   C6        1.0  0.67512  0.58081  0.54295  1.0000
  C   C7        1.0  0.17512  0.58081  0.45705  1.0000
  C   C8        1.0  0.32488  0.41919  0.45705  1.0000
  C   C9        1.0  0.75000  0.50000  0.47972  1.0000
  C   C10       1.0  0.25000  0.50000  0.52028  1.0000
  C   C11       1.0  0.75000  0.50000  0.35127  1.0000
  C   C12       1.0  0.25000  0.50000  0.64873  1.0000
  C   C13       1.0  0.72441  0.37147  0.28840  1.0000
  C   C14       1.0  0.77558  0.62852  0.28840  1.0000
  C   C15       1.0  0.27558  0.62852  0.71160  1.0000
  C   C16       1.0  0.22441  0.37147  0.71160  1.0000
  C   C17       1.0  0.72411  0.37637  0.16739  1.0000
  C   C18       1.0  0.77588  0.62363  0.16739  1.0000
  C   C19       1.0  0.27588  0.62362  0.83262  1.0000
  C   C20       1.0  0.22411  0.37637  0.83261  1.0000
  C   C21       1.0  0.17791  0.95264  0.96250  1.0000
  C   C22       1.0  0.32209  0.04735  0.96251  1.0000
  C   C23       1.0  0.82209  0.04736  0.03749  1.0000
  C   C24       1.0  0.67791  0.95264  0.03749  1.0000
  C   C25       1.0  0.10380  0.90693  0.85925  1.0000
  C   C26       1.0  0.39620  0.09307  0.85926  1.0000
  C   C27       1.0  0.89620  0.09307  0.14075  1.0000
  C   C28       1.0  0.60380  0.90693  0.14075  1.0000
  C   C29       1.0  0.17455  0.95477  0.75041  1.0000
  C   C30       1.0  0.32544  0.04523  0.75041  1.0000
  C   C31       1.0  0.82544  0.04523  0.24959  1.0000
  C   C32       1.0  0.67455  0.95477  0.24958  1.0000
  C   C33       1.0  0.10230  0.91333  0.64174  1.0000
  C   C34       1.0  0.39770  0.08667  0.64174  1.0000
  C   C35       1.0  0.89770  0.08667  0.35826  1.0000
  C   C36       1.0  0.60230  0.91334  0.35826  1.0000
  C   C37       1.0  0.17538  0.95694  0.53798  1.0000
  C   C38       1.0  0.32462  0.04306  0.53798  1.0000
  C   C39       1.0  0.82462  0.04306  0.46202  1.0000
  C   C40       1.0  0.67538  0.95694  0.46202  1.0000
  C   C41       1.0  0.95067  0.80400  0.86571  1.0000
  C   C42       1.0  0.54933  0.19599  0.86571  1.0000
  C   C43       1.0  0.04933  0.19599  0.13429  1.0000
  C   C44       1.0  0.45067  0.80401  0.13429  1.0000
  N   N1        1.0  0.75000  0.50000  0.72438  1.0000
  N   N2        1.0  0.25000  0.50000  0.27562  1.0000
  N   N3        1.0  0.75000  0.50000  0.10747  1.0000
  N   N4        1.0  0.25000  0.50000  0.89253  1.0000
  O   O1        1.0  0.94079  0.68636  0.92185  1.0000
  O   O2        1.0  0.55922  0.31364  0.92186  1.0000
  O   O3        1.0  0.05922  0.31364  0.07814  1.0000
  O   O4        1.0  0.44079  0.68636  0.07814  1.0000
  O   O5        1.0  0.84372  0.83698  0.81991  1.0000
  O   O6        1.0  0.65628  0.16302  0.81992  1.0000
  O   O7        1.0  0.15628  0.16302  0.18008  1.0000
  O   O8        1.0  0.34372  0.83698  0.18008  1.0000
  O   O9        1.0  0.61472  0.63903  0.90872  1.0000
  O   O10       1.0  0.88528  0.36097  0.90872  1.0000
  O   O11       1.0  0.38528  0.36097  0.09128  1.0000
  O   O12       1.0  0.11472  0.63903  0.09128  1.0000
