data_image0
_chemical_formula_structural       H30Pb2C30S2N4O12
_chemical_formula_sum              "H30 Pb2 C30 S2 N4 O12"
_cell_length_a       6.99778
_cell_length_b       11.4719
_cell_length_c       11.6954
_cell_angle_alpha    114.139
_cell_angle_beta     92.5611
_cell_angle_gamma    100.325

_space_group_name_H-M_alt    "P 1"
_space_group_IT_number       1

loop_
  _space_group_symop_operation_xyz
  'x, y, z'

loop_
  _atom_site_type_symbol
  _atom_site_label
  _atom_site_symmetry_multiplicity
  _atom_site_fract_x
  _atom_site_fract_y
  _atom_site_fract_z
  _atom_site_occupancy
  H   H1        1.0  0.37851  0.53959  0.06091  1.0000
  H   H2        1.0  0.62153  0.46039  0.93906  1.0000
  H   H3        1.0  0.13878  0.42423  0.14983  1.0000
  H   H4        1.0  0.86128  0.57575  0.85015  1.0000
  H   H5        1.0  0.85240  0.51675  0.23329  1.0000
  H   H6        1.0  0.14763  0.48323  0.76668  1.0000
  H   H7        1.0  0.80715  0.72458  0.22537  1.0000
  H   H8        1.0  0.19286  0.27537  0.77455  1.0000
  H   H9        1.0  0.73389  0.77221  0.84868  1.0000
  H   H10       1.0  0.26606  0.22772  0.15132  1.0000
  H   H11       1.0  0.44238  0.61651  0.71438  1.0000
  H   H12       1.0  0.55755  0.38356  0.28552  1.0000
  H   H13       1.0  0.79248  0.51328  0.40429  1.0000
  H   H14       1.0  0.20763  0.48679  0.59571  1.0000
  H   H15       1.0  0.06774  0.68467  0.55319  1.0000
  H   H16       1.0  0.93242  0.31528  0.44693  1.0000
  H   H17       1.0  0.62041  0.96664  0.70568  1.0000
  H   H18       1.0  0.37958  0.03334  0.29434  1.0000
  H   H19       1.0  0.51581  0.68509  0.34841  1.0000
  H   H20       1.0  0.48422  0.31497  0.65164  1.0000
  H   H21       1.0  0.42351  0.81352  0.33339  1.0000
  H   H22       1.0  0.57653  0.18649  0.66656  1.0000
  H   H23       1.0  0.30519  0.73164  0.42086  1.0000
  H   H24       1.0  0.69475  0.26841  0.57908  1.0000
  H   H25       1.0  0.84918  0.98625  0.59135  1.0000
  H   H26       1.0  0.15077  0.01378  0.40866  1.0000
  H   H27       1.0  0.75958  0.97036  0.43742  1.0000
  H   H28       1.0  0.24043  0.02965  0.56258  1.0000
  H   H29       1.0  0.84783  0.84107  0.45325  1.0000
  H   H30       1.0  0.15206  0.15893  0.54678  1.0000
  Pb  Pb1       1.0  0.20552  0.92371  0.86237  1.0000
  Pb  Pb2       1.0  0.79446  0.07641  0.13785  1.0000
  C   C1        1.0  0.00829  0.86443  0.12662  1.0000
  C   C2        1.0  0.99162  0.13554  0.87336  1.0000
  C   C3        1.0  0.06213  0.74673  0.13519  1.0000
  C   C4        1.0  0.93785  0.25322  0.86475  1.0000
  C   C5        1.0  0.22322  0.69323  0.08855  1.0000
  C   C6        1.0  0.77678  0.30673  0.91141  1.0000
  C   C7        1.0  0.25250  0.57934  0.09707  1.0000
  C   C8        1.0  0.74752  0.42062  0.90289  1.0000
  C   C9        1.0  0.11976  0.51615  0.14946  1.0000
  C   C10       1.0  0.88027  0.48381  0.85049  1.0000
  C   C11       1.0  0.96039  0.56916  0.19722  1.0000
  C   C12       1.0  0.03964  0.43080  0.80274  1.0000
  C   C13       1.0  0.93379  0.68416  0.19174  1.0000
  C   C14       1.0  0.06622  0.31578  0.80819  1.0000
  C   C15       1.0  0.73957  0.71562  0.74838  1.0000
  C   C16       1.0  0.26044  0.28435  0.25163  1.0000
  C   C17       1.0  0.57541  0.62433  0.67091  1.0000
  C   C18       1.0  0.42459  0.37570  0.32904  1.0000
  C   C19       1.0  0.58624  0.54861  0.54304  1.0000
  C   C20       1.0  0.41381  0.45143  0.45693  1.0000
  C   C21       1.0  0.76911  0.56976  0.50109  1.0000
  C   C22       1.0  0.23098  0.43028  0.49891  1.0000
  C   C23       1.0  0.92556  0.66444  0.58401  1.0000
  C   C24       1.0  0.07455  0.33553  0.41606  1.0000
  C   C25       1.0  0.51114  0.89418  0.62612  1.0000
  C   C26       1.0  0.48880  0.10585  0.37391  1.0000
  C   C27       1.0  0.44662  0.76777  0.39755  1.0000
  C   C28       1.0  0.55336  0.23228  0.60245  1.0000
  C   C29       1.0  0.76795  0.91903  0.49829  1.0000
  C   C30       1.0  0.23199  0.08099  0.50173  1.0000
  S   S1        1.0  0.39901  0.76228  0.01457  1.0000
  S   S2        1.0  0.60101  0.23770  0.98542  1.0000
  N   N1        1.0  0.91211  0.73704  0.70615  1.0000
  N   N2        1.0  0.08796  0.26291  0.29392  1.0000
  N   N3        1.0  0.57208  0.86198  0.51246  1.0000
  N   N4        1.0  0.42783  0.13810  0.48755  1.0000
  O   O1        1.0  0.98918  0.87057  0.02046  1.0000
  O   O2        1.0  0.01057  0.12940  0.97954  1.0000
  O   O3        1.0  0.97060  0.95040  0.22873  1.0000
  O   O4        1.0  0.02940  0.04955  0.77130  1.0000
  O   O5        1.0  0.30933  0.71704  0.88192  1.0000
  O   O6        1.0  0.69072  0.28297  0.11808  1.0000
  O   O7        1.0  0.57532  0.71431  0.02404  1.0000
  O   O8        1.0  0.42473  0.28572  0.97597  1.0000
  O   O9        1.0  0.42695  0.90680  0.08393  1.0000
  O   O10       1.0  0.57297  0.09318  0.91610  1.0000
  O   O11       1.0  0.34376  0.84780  0.64354  1.0000
  O   O12       1.0  0.65622  0.15223  0.35652  1.0000
