data_image0
_chemical_formula_structural       Cd3H22C30O16
_chemical_formula_sum              "Cd3 H22 C30 O16"
_cell_length_a       7.93879
_cell_length_b       9.80235
_cell_length_c       11.0962
_cell_angle_alpha    68.4965
_cell_angle_beta     74.9171
_cell_angle_gamma    74.0532

_space_group_name_H-M_alt    "P 1"
_space_group_IT_number       1

loop_
  _space_group_symop_operation_xyz
  'x, y, z'

loop_
  _atom_site_type_symbol
  _atom_site_label
  _atom_site_symmetry_multiplicity
  _atom_site_fract_x
  _atom_site_fract_y
  _atom_site_fract_z
  _atom_site_occupancy
  Cd  Cd1       1.0  0.17036  0.09369  0.49643  1.0000
  Cd  Cd2       1.0  0.82963  0.90631  0.50357  1.0000
  Cd  Cd3       1.0  1.00000  0.50000  0.50000  1.0000
  H   H1        1.0  0.91686  0.34941  0.82716  1.0000
  H   H2        1.0  0.08312  0.65059  0.17285  1.0000
  H   H3        1.0  0.33362  0.96143  0.92272  1.0000
  H   H4        1.0  0.66638  0.03857  0.07728  1.0000
  H   H5        1.0  0.25740  0.95695  0.15803  1.0000
  H   H6        1.0  0.74261  0.04305  0.84196  1.0000
  H   H7        1.0  0.66374  0.20590  0.22583  1.0000
  H   H8        1.0  0.33625  0.79410  0.77417  1.0000
  H   H9        1.0  0.38058  0.66120  0.16594  1.0000
  H   H10       1.0  0.61943  0.33880  0.83407  1.0000
  H   H11       1.0  0.62024  0.74740  0.97678  1.0000
  H   H12       1.0  0.37978  0.25260  0.02323  1.0000
  H   H13       1.0  0.87874  0.56299  0.91267  1.0000
  H   H14       1.0  0.12127  0.43700  0.08734  1.0000
  H   H15       1.0  0.45472  0.83687  0.54339  1.0000
  H   H16       1.0  0.54527  0.16313  0.45661  1.0000
  H   H17       1.0  0.47621  0.91330  0.39354  1.0000
  H   H18       1.0  0.52380  0.08670  0.60645  1.0000
  H   H19       1.0  0.27514  0.63992  0.49851  1.0000
  H   H20       1.0  0.72485  0.36009  0.50148  1.0000
  H   H21       1.0  0.13776  0.62626  0.63097  1.0000
  H   H22       1.0  0.86224  0.37374  0.36903  1.0000
  C   C1        1.0  0.02990  0.15942  0.25865  1.0000
  C   C2        1.0  0.97011  0.84057  0.74135  1.0000
  C   C3        1.0  0.04723  0.15175  0.12357  1.0000
  C   C4        1.0  0.95277  0.84825  0.87643  1.0000
  C   C5        1.0  0.94804  0.26318  0.03074  1.0000
  C   C6        1.0  0.05196  0.73682  0.96926  1.0000
  C   C7        1.0  0.99377  0.26539  0.89951  1.0000
  C   C8        1.0  0.00623  0.73461  0.10049  1.0000
  C   C9        1.0  0.13283  0.15841  0.86020  1.0000
  C   C10       1.0  0.86717  0.84159  0.13980  1.0000
  C   C11       1.0  0.22779  0.04597  0.95367  1.0000
  C   C12       1.0  0.77221  0.95403  0.04632  1.0000
  C   C13       1.0  0.18398  0.04256  0.08437  1.0000
  C   C14       1.0  0.81602  0.95744  0.91562  1.0000
  C   C15       1.0  0.16917  0.15337  0.72277  1.0000
  C   C16       1.0  0.83082  0.84663  0.27723  1.0000
  C   C17       1.0  0.79335  0.37299  0.06937  1.0000
  C   C18       1.0  0.20666  0.62700  0.93064  1.0000
  C   C19       1.0  0.65758  0.32514  0.17407  1.0000
  C   C20       1.0  0.34243  0.67486  0.82593  1.0000
  C   C21       1.0  0.50861  0.42866  0.20773  1.0000
  C   C22       1.0  0.49139  0.57134  0.79228  1.0000
  C   C23       1.0  0.49685  0.58175  0.13821  1.0000
  C   C24       1.0  0.50315  0.41825  0.86179  1.0000
  C   C25       1.0  0.63018  0.62905  0.03284  1.0000
  C   C26       1.0  0.36983  0.37094  0.96717  1.0000
  C   C27       1.0  0.77659  0.52549  0.99715  1.0000
  C   C28       1.0  0.22342  0.47450  0.00286  1.0000
  C   C29       1.0  0.35726  0.37607  0.31171  1.0000
  C   C30       1.0  0.64274  0.62393  0.68829  1.0000
  O   O1        1.0  0.00669  0.28481  0.27365  1.0000
  O   O2        1.0  0.99332  0.71518  0.72636  1.0000
  O   O3        1.0  0.05807  0.03453  0.35385  1.0000
  O   O4        1.0  0.94193  0.96546  0.64615  1.0000
  O   O5        1.0  0.06652  0.24265  0.64120  1.0000
  O   O6        1.0  0.93347  0.75735  0.35880  1.0000
  O   O7        1.0  0.29431  0.05176  0.69140  1.0000
  O   O8        1.0  0.70568  0.94825  0.30859  1.0000
  O   O9        1.0  0.22005  0.47311  0.33218  1.0000
  O   O10       1.0  0.77994  0.52690  0.66781  1.0000
  O   O11       1.0  0.37597  0.23426  0.37234  1.0000
  O   O12       1.0  0.62402  0.76574  0.62766  1.0000
  O   O13       1.0  0.38353  0.88092  0.47082  1.0000
  O   O14       1.0  0.61647  0.11908  0.52918  1.0000
  O   O15       1.0  0.20698  0.57046  0.56815  1.0000
  O   O16       1.0  0.79302  0.42954  0.43184  1.0000
