data_image0
_chemical_formula_structural       Cu4H16C28N4O18
_chemical_formula_sum              "Cu4 H16 C28 N4 O18"
_cell_length_a       6.86156
_cell_length_b       10.7407
_cell_length_c       11.0883
_cell_angle_alpha    86.3456
_cell_angle_beta     87.2836
_cell_angle_gamma    87.8548

_space_group_name_H-M_alt    "P 1"
_space_group_IT_number       1

loop_
  _space_group_symop_operation_xyz
  'x, y, z'

loop_
  _atom_site_type_symbol
  _atom_site_label
  _atom_site_symmetry_multiplicity
  _atom_site_fract_x
  _atom_site_fract_y
  _atom_site_fract_z
  _atom_site_occupancy
  Cu  Cu1       1.0  0.80670  0.00603  0.31298  1.0000
  Cu  Cu2       1.0  0.19330  0.99396  0.68701  1.0000
  Cu  Cu3       1.0  0.49803  0.86073  0.48352  1.0000
  Cu  Cu4       1.0  0.50195  0.13927  0.51647  1.0000
  H   H1        1.0  0.84190  0.83604  0.89246  1.0000
  H   H2        1.0  0.15809  0.16396  0.10753  1.0000
  H   H3        1.0  0.16403  0.29007  0.26900  1.0000
  H   H4        1.0  0.83599  0.70989  0.73101  1.0000
  H   H5        1.0  0.69253  0.50896  0.42883  1.0000
  H   H6        1.0  0.30747  0.49103  0.57115  1.0000
  H   H7        1.0  0.61085  0.21338  0.91166  1.0000
  H   H8        1.0  0.38915  0.78663  0.08834  1.0000
  H   H9        1.0  0.66872  0.19544  0.13346  1.0000
  H   H10       1.0  0.33127  0.80456  0.86654  1.0000
  H   H11       1.0  0.87286  0.82877  0.11777  1.0000
  H   H12       1.0  0.12712  0.17123  0.88223  1.0000
  H   H13       1.0  0.20310  0.69070  0.27224  1.0000
  H   H14       1.0  0.79689  0.30927  0.72776  1.0000
  H   H15       1.0  0.76110  0.98438  0.55432  1.0000
  H   H16       1.0  0.23888  0.01563  0.44567  1.0000
  C   C1        1.0  0.80108  0.27249  0.37637  1.0000
  C   C2        1.0  0.19894  0.72752  0.62361  1.0000
  C   C3        1.0  0.79862  0.91659  0.94347  1.0000
  C   C4        1.0  0.20137  0.08341  0.05653  1.0000
  C   C5        1.0  0.09932  0.38024  0.29140  1.0000
  C   C6        1.0  0.90068  0.61976  0.70861  1.0000
  C   C7        1.0  0.72566  0.02629  0.88448  1.0000
  C   C8        1.0  0.27433  0.97371  0.11552  1.0000
  C   C9        1.0  0.91480  0.38806  0.34973  1.0000
  C   C10       1.0  0.08518  0.61192  0.65028  1.0000
  C   C11       1.0  0.83509  0.50347  0.38171  1.0000
  C   C12       1.0  0.16492  0.49652  0.61828  1.0000
  C   C13       1.0  0.67292  0.12737  0.95379  1.0000
  C   C14       1.0  0.32708  0.87263  0.04621  1.0000
  C   C15       1.0  0.70295  0.03727  0.74959  1.0000
  C   C16       1.0  0.29704  0.96274  0.25040  1.0000
  C   C17       1.0  0.70211  0.11740  0.07718  1.0000
  C   C18       1.0  0.29788  0.88261  0.92282  1.0000
  C   C19       1.0  0.19953  0.48998  0.26547  1.0000
  C   C20       1.0  0.80049  0.51005  0.73454  1.0000
  C   C21       1.0  0.81805  0.91215  0.06767  1.0000
  C   C22       1.0  0.18193  0.08785  0.93233  1.0000
  C   C23       1.0  0.12071  0.60688  0.29314  1.0000
  C   C24       1.0  0.87932  0.39312  0.70686  1.0000
  C   C25       1.0  0.83824  0.73553  0.37937  1.0000
  C   C26       1.0  0.16176  0.26448  0.62064  1.0000
  C   C27       1.0  0.93568  0.61276  0.35150  1.0000
  C   C28       1.0  0.06436  0.38722  0.64850  1.0000
  N   N1        1.0  0.77438  0.01174  0.13324  1.0000
  N   N2        1.0  0.22561  0.98826  0.86676  1.0000
  N   N3        1.0  0.39565  0.48157  0.20575  1.0000
  N   N4        1.0  0.60435  0.51843  0.79427  1.0000
  O   O1        1.0  0.68387  0.27152  0.46867  1.0000
  O   O2        1.0  0.31613  0.72849  0.53131  1.0000
  O   O3        1.0  0.83220  0.18785  0.30195  1.0000
  O   O4        1.0  0.16780  0.81216  0.69805  1.0000
  O   O5        1.0  0.68543  0.99942  0.47477  1.0000
  O   O6        1.0  0.31455  0.00057  0.52523  1.0000
  O   O7        1.0  0.81387  0.96625  0.68565  1.0000
  O   O8        1.0  0.18613  0.03375  0.31435  1.0000
  O   O9        1.0  0.57503  0.11592  0.71118  1.0000
  O   O10       1.0  0.42495  0.88408  0.28882  1.0000
  O   O11       1.0  0.47890  0.58013  0.17584  1.0000
  O   O12       1.0  0.52111  0.41988  0.82419  1.0000
  O   O13       1.0  0.46714  0.37575  0.18873  1.0000
  O   O14       1.0  0.53289  0.62427  0.81127  1.0000
  O   O15       1.0  0.90058  0.83118  0.31746  1.0000
  O   O16       1.0  0.09944  0.16883  0.68255  1.0000
  O   O17       1.0  0.70050  0.73146  0.46020  1.0000
  O   O18       1.0  0.29949  0.26854  0.53981  1.0000
