data_image0
_chemical_formula_structural       Zn2H30C38N2O8
_chemical_formula_sum              "Zn2 H30 C38 N2 O8"
_cell_length_a       7.58985
_cell_length_b       10.8084
_cell_length_c       11.1334
_cell_angle_alpha    63.8826
_cell_angle_beta     87.9605
_cell_angle_gamma    88.8554

_space_group_name_H-M_alt    "P 1"
_space_group_IT_number       1

loop_
  _space_group_symop_operation_xyz
  'x, y, z'

loop_
  _atom_site_type_symbol
  _atom_site_label
  _atom_site_symmetry_multiplicity
  _atom_site_fract_x
  _atom_site_fract_y
  _atom_site_fract_z
  _atom_site_occupancy
  Zn  Zn1       1.0  0.37781  0.31931  0.68339  1.0000
  Zn  Zn2       1.0  0.64296  0.13260  0.85861  1.0000
  H   H1        1.0  0.03802  0.18568  0.53384  1.0000
  H   H2        1.0  0.55407  0.29384  0.32001  1.0000
  H   H3        1.0  0.70825  0.28688  0.12052  1.0000
  H   H4        1.0  0.98267  0.26505  0.00840  1.0000
  H   H5        1.0  0.46664  0.15752  0.22218  1.0000
  H   H6        1.0  0.31241  0.16457  0.42159  1.0000
  H   H7        1.0  0.04183  0.44641  0.83601  1.0000
  H   H8        1.0  0.56497  0.68092  0.69722  1.0000
  H   H9        1.0  0.71242  0.89217  0.68094  1.0000
  H   H10       1.0  0.97828  0.00541  0.70545  1.0000
  H   H11       1.0  0.45621  0.77166  0.84228  1.0000
  H   H12       1.0  0.30838  0.56006  0.85981  1.0000
  H   H13       1.0  0.62547  0.82942  0.00471  1.0000
  H   H14       1.0  0.23528  0.92926  0.06036  1.0000
  H   H15       1.0  0.01771  0.11413  0.93882  1.0000
  H   H16       1.0  0.66898  0.59192  0.10997  1.0000
  H   H17       1.0  0.82673  0.52852  0.23764  1.0000
  H   H18       1.0  0.88076  0.53906  0.07794  1.0000
  H   H19       1.0  0.13455  0.54840  0.19520  1.0000
  H   H20       1.0  0.24238  0.65708  0.25100  1.0000
  H   H21       1.0  0.29688  0.66653  0.09111  1.0000
  H   H22       1.0  0.39255  0.62444  0.53584  1.0000
  H   H23       1.0  0.78458  0.51813  0.48299  1.0000
  H   H24       1.0  0.00498  0.33549  0.60433  1.0000
  H   H25       1.0  0.11821  0.93668  0.33814  1.0000
  H   H26       1.0  0.33768  0.87334  0.36247  1.0000
  H   H27       1.0  0.21506  0.88573  0.49498  1.0000
  H   H28       1.0  0.70266  0.75272  0.37396  1.0000
  H   H29       1.0  0.87035  0.87059  0.27641  1.0000
  H   H30       1.0  0.80966  0.85615  0.43677  1.0000
  C   C1        1.0  0.96483  0.20914  0.44387  1.0000
  C   C2        1.0  0.78586  0.23779  0.43987  1.0000
  C   C3        1.0  0.69354  0.26813  0.32142  1.0000
  C   C4        1.0  0.77890  0.26586  0.21124  1.0000
  C   C5        1.0  0.05567  0.24161  0.09849  1.0000
  C   C6        1.0  0.23468  0.21298  0.10251  1.0000
  C   C7        1.0  0.32706  0.18289  0.22087  1.0000
  C   C8        1.0  0.24163  0.18524  0.33100  1.0000
  C   C9        1.0  0.05756  0.21175  0.33037  1.0000
  C   C10       1.0  0.96296  0.23926  0.21192  1.0000
  C   C11       1.0  0.68818  0.23827  0.55921  1.0000
  C   C12       1.0  0.33247  0.21250  0.98316  1.0000
  C   C13       1.0  0.96826  0.54269  0.80500  1.0000
  C   C14       1.0  0.79332  0.54985  0.77108  1.0000
  C   C15       1.0  0.70184  0.67772  0.72446  1.0000
  C   C16       1.0  0.78380  0.79450  0.71444  1.0000
  C   C17       1.0  0.05212  0.90928  0.73627  1.0000
  C   C18       1.0  0.22720  0.90235  0.76983  1.0000
  C   C19       1.0  0.31901  0.77464  0.81580  1.0000
  C   C20       1.0  0.23695  0.65767  0.82630  1.0000
  C   C21       1.0  0.05703  0.66162  0.79357  1.0000
  C   C22       1.0  0.96359  0.79036  0.74757  1.0000
  C   C23       1.0  0.70039  0.42547  0.77773  1.0000
  C   C24       1.0  0.31981  0.02673  0.76359  1.0000
  C   C25       1.0  0.76233  0.84618  0.02039  1.0000
  C   C26       1.0  0.87623  0.73508  0.08434  1.0000
  C   C27       1.0  0.05213  0.76337  0.10052  1.0000
  C   C28       1.0  0.10044  0.90188  0.05161  1.0000
  C   C29       1.0  0.97995  0.00618  0.98533  1.0000
  C   C30       1.0  0.80949  0.59165  0.13001  1.0000
  C   C31       1.0  0.18740  0.65198  0.16335  1.0000
  C   C32       1.0  0.25598  0.60620  0.52072  1.0000
  C   C33       1.0  0.14036  0.71605  0.45655  1.0000
  C   C34       1.0  0.96482  0.68582  0.44138  1.0000
  C   C35       1.0  0.91897  0.54681  0.49112  1.0000
  C   C36       1.0  0.04106  0.44379  0.55754  1.0000
  C   C37       1.0  0.20562  0.86024  0.40997  1.0000
  C   C38       1.0  0.82951  0.79706  0.37837  1.0000
  N   N1        1.0  0.81201  0.97873  0.97041  1.0000
  N   N2        1.0  0.20827  0.47306  0.57185  1.0000
  O   O1        1.0  0.54396  0.30619  0.53791  1.0000
  O   O2        1.0  0.75727  0.17134  0.67283  1.0000
  O   O3        1.0  0.47729  0.14534  0.00452  1.0000
  O   O4        1.0  0.26310  0.27868  0.86952  1.0000
  O   O5        1.0  0.76968  0.30745  0.84522  1.0000
  O   O6        1.0  0.55770  0.44751  0.71397  1.0000
  O   O7        1.0  0.46170  0.00455  0.82831  1.0000
  O   O8        1.0  0.25104  0.14481  0.69552  1.0000
