data_image0
_chemical_formula_structural       Na4Co2H24C20O16
_chemical_formula_sum              "Na4 Co2 H24 C20 O16"
_cell_length_a       7.65938
_cell_length_b       9.63134
_cell_length_c       10.4217
_cell_angle_alpha    108.89
_cell_angle_beta     89.9996
_cell_angle_gamma    113.432

_space_group_name_H-M_alt    "P 1"
_space_group_IT_number       1

loop_
  _space_group_symop_operation_xyz
  'x, y, z'

loop_
  _atom_site_type_symbol
  _atom_site_label
  _atom_site_symmetry_multiplicity
  _atom_site_fract_x
  _atom_site_fract_y
  _atom_site_fract_z
  _atom_site_occupancy
  Na  Na1       1.0  0.50000  1.00000  0.50000  1.0000
  Na  Na2       1.0  0.50000  0.00000  0.00000  1.0000
  Na  Na3       1.0  0.18080  0.99996  0.74998  1.0000
  Na  Na4       1.0  0.81920  0.00003  0.25002  1.0000
  Co  Co1       1.0  0.74468  0.99999  0.74998  1.0000
  Co  Co2       1.0  0.25532  0.00002  0.25002  1.0000
  H   H1        1.0  0.02355  0.73611  0.43409  1.0000
  H   H2        1.0  0.28740  0.26390  0.06589  1.0000
  H   H3        1.0  0.97645  0.26388  0.56591  1.0000
  H   H4        1.0  0.71260  0.73610  0.93411  1.0000
  H   H5        1.0  0.86602  0.70219  0.29051  1.0000
  H   H6        1.0  0.16379  0.29777  0.20945  1.0000
  H   H7        1.0  0.13397  0.29781  0.70949  1.0000
  H   H8        1.0  0.83621  0.70223  0.79055  1.0000
  H   H9        1.0  0.75558  0.54488  0.51026  1.0000
  H   H10       1.0  0.21063  0.45514  0.98975  1.0000
  H   H11       1.0  0.24442  0.45512  0.48974  1.0000
  H   H12       1.0  0.78937  0.54486  0.01025  1.0000
  H   H13       1.0  0.58852  0.51803  0.37723  1.0000
  H   H14       1.0  0.07043  0.48197  0.12279  1.0000
  H   H15       1.0  0.41148  0.48197  0.62277  1.0000
  H   H16       1.0  0.92957  0.51803  0.87721  1.0000
  H   H17       1.0  0.77046  0.40510  0.20191  1.0000
  H   H18       1.0  0.36535  0.59490  0.29809  1.0000
  H   H19       1.0  0.22954  0.59491  0.79809  1.0000
  H   H20       1.0  0.63465  0.40510  0.70191  1.0000
  H   H21       1.0  0.92460  0.41828  0.33823  1.0000
  H   H22       1.0  0.50628  0.58169  0.16176  1.0000
  H   H23       1.0  0.07540  0.58172  0.66177  1.0000
  H   H24       1.0  0.49372  0.41832  0.83824  1.0000
  C   C1        1.0  0.81522  0.83566  0.48347  1.0000
  C   C2        1.0  0.97954  0.16429  0.01651  1.0000
  C   C3        1.0  0.18479  0.16434  0.51652  1.0000
  C   C4        1.0  0.02047  0.83571  0.98349  1.0000
  C   C5        1.0  0.87416  0.70637  0.39707  1.0000
  C   C6        1.0  0.16772  0.29361  0.10290  1.0000
  C   C7        1.0  0.12584  0.29363  0.60293  1.0000
  C   C8        1.0  0.83228  0.70639  0.89711  1.0000
  C   C9        1.0  0.73910  0.54172  0.40429  1.0000
  C   C10       1.0  0.19731  0.45829  0.09572  1.0000
  C   C11       1.0  0.26090  0.45828  0.59571  1.0000
  C   C12       1.0  0.80269  0.54171  0.90428  1.0000
  C   C13       1.0  0.77963  0.40366  0.30667  1.0000
  C   C14       1.0  0.37596  0.59635  0.19334  1.0000
  C   C15       1.0  0.22037  0.59634  0.69333  1.0000
  C   C16       1.0  0.62403  0.40364  0.80666  1.0000
  C   C17       1.0  0.63395  0.24183  0.30672  1.0000
  C   C18       1.0  0.39215  0.75819  0.19330  1.0000
  C   C19       1.0  0.36604  0.75817  0.69328  1.0000
  C   C20       1.0  0.60786  0.24181  0.80670  1.0000
  O   O1        1.0  0.86302  0.88291  0.61513  1.0000
  O   O2        1.0  0.98007  0.11711  0.88484  1.0000
  O   O3        1.0  0.13698  0.11709  0.38487  1.0000
  O   O4        1.0  0.01993  0.88289  0.11515  1.0000
  O   O5        1.0  0.71977  0.88762  0.42900  1.0000
  O   O6        1.0  0.83216  0.11228  0.07099  1.0000
  O   O7        1.0  0.28024  0.11238  0.57100  1.0000
  O   O8        1.0  0.16784  0.88772  0.92901  1.0000
  O   O9        1.0  0.66861  0.17679  0.38459  1.0000
  O   O10       1.0  0.49190  0.82319  0.11540  1.0000
  O   O11       1.0  0.33139  0.82321  0.61541  1.0000
  O   O12       1.0  0.50810  0.17681  0.88460  1.0000
  O   O13       1.0  0.47301  0.17892  0.22440  1.0000
  O   O14       1.0  0.29414  0.82112  0.27562  1.0000
  O   O15       1.0  0.52699  0.82108  0.77561  1.0000
  O   O16       1.0  0.70585  0.17887  0.72438  1.0000
