data_image0
_chemical_formula_structural       Zn2H34C48N4O10
_chemical_formula_sum              "Zn2 H34 C48 N4 O10"
_cell_length_a       9.26955
_cell_length_b       9.64779
_cell_length_c       11.8381
_cell_angle_alpha    81.5044
_cell_angle_beta     80.9432
_cell_angle_gamma    68.9966

_space_group_name_H-M_alt    "P 1"
_space_group_IT_number       1

loop_
  _space_group_symop_operation_xyz
  'x, y, z'

loop_
  _atom_site_type_symbol
  _atom_site_label
  _atom_site_symmetry_multiplicity
  _atom_site_fract_x
  _atom_site_fract_y
  _atom_site_fract_z
  _atom_site_occupancy
  Zn  Zn1       1.0  0.78677  0.16383  0.62290  1.0000
  Zn  Zn2       1.0  0.21323  0.83617  0.37710  1.0000
  H   H1        1.0  0.71971  0.99233  0.52004  1.0000
  H   H2        1.0  0.28029  0.00767  0.47996  1.0000
  H   H3        1.0  0.85314  0.03054  0.42536  1.0000
  H   H4        1.0  0.14686  0.96946  0.57464  1.0000
  H   H5        1.0  0.30528  0.07748  0.65573  1.0000
  H   H6        1.0  0.69472  0.92252  0.34427  1.0000
  H   H7        1.0  0.35189  0.75366  0.02389  1.0000
  H   H8        1.0  0.64810  0.24634  0.97611  1.0000
  H   H9        1.0  0.09276  0.90070  0.96664  1.0000
  H   H10       1.0  0.90723  0.09930  0.03336  1.0000
  H   H11       1.0  0.69370  0.91862  0.95794  1.0000
  H   H12       1.0  0.30630  0.08138  0.04206  1.0000
  H   H13       1.0  0.94134  0.75479  0.02355  1.0000
  H   H14       1.0  0.05866  0.24521  0.97645  1.0000
  H   H15       1.0  0.86190  0.37452  0.92670  1.0000
  H   H16       1.0  0.13810  0.62548  0.07330  1.0000
  H   H17       1.0  0.60875  0.53876  0.87167  1.0000
  H   H18       1.0  0.39125  0.46124  0.12833  1.0000
  H   H19       1.0  0.04258  0.19600  0.41442  1.0000
  H   H20       1.0  0.95742  0.80400  0.58558  1.0000
  H   H21       1.0  0.09098  0.40385  0.27908  1.0000
  H   H22       1.0  0.90902  0.59614  0.72092  1.0000
  H   H23       1.0  0.91064  0.66568  0.30309  1.0000
  H   H24       1.0  0.08936  0.33431  0.69691  1.0000
  H   H25       1.0  0.68899  0.70944  0.46084  1.0000
  H   H26       1.0  0.31102  0.29056  0.53915  1.0000
  H   H27       1.0  0.49941  0.72722  0.58322  1.0000
  H   H28       1.0  0.50059  0.27278  0.41678  1.0000
  H   H29       1.0  0.28228  0.72787  0.73336  1.0000
  H   H30       1.0  0.71772  0.27213  0.26664  1.0000
  H   H31       1.0  0.28319  0.48549  0.84893  1.0000
  H   H32       1.0  0.71681  0.51451  0.15107  1.0000
  H   H33       1.0  0.50333  0.25045  0.80063  1.0000
  H   H34       1.0  0.49667  0.74955  0.19937  1.0000
  C   C1        1.0  0.02171  0.08081  0.76843  1.0000
  C   C2        1.0  0.97828  0.91919  0.23157  1.0000
  C   C3        1.0  0.18018  0.99906  0.80634  1.0000
  C   C4        1.0  0.81982  0.00094  0.19366  1.0000
  C   C5        1.0  0.31426  0.00995  0.73837  1.0000
  C   C6        1.0  0.68574  0.99004  0.26163  1.0000
  C   C7        1.0  0.46182  0.93267  0.77368  1.0000
  C   C8        1.0  0.53818  0.06733  0.22632  1.0000
  C   C9        1.0  0.47746  0.83653  0.87619  1.0000
  C   C10       1.0  0.52254  0.16347  0.12381  1.0000
  C   C11       1.0  0.34221  0.82631  0.94358  1.0000
  C   C12       1.0  0.65778  0.17369  0.05643  1.0000
  C   C13       1.0  0.19514  0.90875  0.91086  1.0000
  C   C14       1.0  0.80486  0.09125  0.08914  1.0000
  C   C15       1.0  0.59907  0.95336  0.69539  1.0000
  C   C16       1.0  0.40093  0.04664  0.30461  1.0000
  C   C17       1.0  0.63212  0.74060  0.91097  1.0000
  C   C18       1.0  0.36788  0.25940  0.08903  1.0000
  C   C19       1.0  0.72964  0.79893  0.95271  1.0000
  C   C20       1.0  0.27036  0.20107  0.04729  1.0000
  C   C21       1.0  0.87164  0.70500  0.98844  1.0000
  C   C22       1.0  0.12836  0.29500  0.01156  1.0000
  C   C23       1.0  0.92428  0.54984  0.98106  1.0000
  C   C24       1.0  0.07572  0.45016  0.01895  1.0000
  C   C25       1.0  0.82668  0.49283  0.93691  1.0000
  C   C26       1.0  0.17332  0.50718  0.06309  1.0000
  C   C27       1.0  0.68280  0.58614  0.90418  1.0000
  C   C28       1.0  0.31720  0.41386  0.09582  1.0000
  C   C29       1.0  0.96629  0.31128  0.42131  1.0000
  C   C30       1.0  0.03371  0.68872  0.57869  1.0000
  C   C31       1.0  0.99310  0.42740  0.34629  1.0000
  C   C32       1.0  0.00691  0.57260  0.65371  1.0000
  C   C33       1.0  0.89214  0.57259  0.36012  1.0000
  C   C34       1.0  0.10786  0.42741  0.63988  1.0000
  C   C35       1.0  0.76778  0.59709  0.44689  1.0000
  C   C36       1.0  0.23222  0.40291  0.55311  1.0000
  C   C37       1.0  0.74710  0.47443  0.51775  1.0000
  C   C38       1.0  0.25290  0.52557  0.48225  1.0000
  C   C39       1.0  0.61532  0.48717  0.60954  1.0000
  C   C40       1.0  0.38468  0.51283  0.39046  1.0000
  C   C41       1.0  0.49727  0.62260  0.63108  1.0000
  C   C42       1.0  0.50273  0.37740  0.36892  1.0000
  C   C43       1.0  0.37547  0.62320  0.71673  1.0000
  C   C44       1.0  0.62453  0.37680  0.28327  1.0000
  C   C45       1.0  0.37521  0.48973  0.78044  1.0000
  C   C46       1.0  0.62479  0.51027  0.21956  1.0000
  C   C47       1.0  0.49667  0.35891  0.75497  1.0000
  C   C48       1.0  0.50333  0.64109  0.24503  1.0000
  N   N1        1.0  0.84704  0.33461  0.50474  1.0000
  N   N2        1.0  0.15296  0.66539  0.49526  1.0000
  N   N3        1.0  0.61265  0.35771  0.67096  1.0000
  N   N4        1.0  0.38735  0.64229  0.32904  1.0000
  O   O1        1.0  0.00285  0.05525  0.66702  1.0000
  O   O2        1.0  0.99715  0.94475  0.33298  1.0000
  O   O3        1.0  0.91695  0.16627  0.83070  1.0000
  O   O4        1.0  0.08305  0.83373  0.16930  1.0000
  O   O5        1.0  0.63441  0.89513  0.60095  1.0000
  O   O6        1.0  0.36559  0.10487  0.39905  1.0000
  O   O7        1.0  0.66404  0.03480  0.72813  1.0000
  O   O8        1.0  0.33596  0.96520  0.27187  1.0000
  O   O9        1.0  0.76388  0.07367  0.48461  1.0000
  O   O10       1.0  0.23612  0.92633  0.51539  1.0000
