data_image0
_chemical_formula_structural       Ni2Mo4H24C30N6O14
_chemical_formula_sum              "Ni2 Mo4 H24 C30 N6 O14"
_cell_length_a       7.22182
_cell_length_b       10.9179
_cell_length_c       11.2265
_cell_angle_alpha    98.6518
_cell_angle_beta     87.7728
_cell_angle_gamma    106.618

_space_group_name_H-M_alt    "P 1"
_space_group_IT_number       1

loop_
  _space_group_symop_operation_xyz
  'x, y, z'

loop_
  _atom_site_type_symbol
  _atom_site_label
  _atom_site_symmetry_multiplicity
  _atom_site_fract_x
  _atom_site_fract_y
  _atom_site_fract_z
  _atom_site_occupancy
  Ni  Ni1       1.0  0.50000  0.00000  0.50000  1.0000
  Ni  Ni2       1.0  0.50000  0.00000  1.00000  1.0000
  Mo  Mo1       1.0  0.25378  0.09007  0.27421  1.0000
  Mo  Mo2       1.0  0.74621  0.90992  0.72579  1.0000
  Mo  Mo3       1.0  0.76849  0.89305  0.22411  1.0000
  Mo  Mo4       1.0  0.23150  0.10695  0.77589  1.0000
  H   H1        1.0  0.71121  0.17256  0.26986  1.0000
  H   H2        1.0  0.28879  0.82743  0.73014  1.0000
  H   H3        1.0  0.99073  0.36320  0.31462  1.0000
  H   H4        1.0  0.00927  0.63680  0.68538  1.0000
  H   H5        1.0  0.58995  0.59559  0.37013  1.0000
  H   H6        1.0  0.41005  0.40440  0.62986  1.0000
  H   H7        1.0  0.32453  0.38970  0.32227  1.0000
  H   H8        1.0  0.67547  0.61030  0.67772  1.0000
  H   H9        1.0  0.46331  0.74047  0.35727  1.0000
  H   H10       1.0  0.53668  0.25953  0.64273  1.0000
  H   H11       1.0  0.19965  0.54372  0.28515  1.0000
  H   H12       1.0  0.80034  0.45628  0.71485  1.0000
  H   H13       1.0  0.80176  0.73032  0.48176  1.0000
  H   H14       1.0  0.19823  0.26967  0.51824  1.0000
  H   H15       1.0  0.08046  0.92014  0.53751  1.0000
  H   H16       1.0  0.91952  0.07986  0.46249  1.0000
  H   H17       1.0  0.54523  0.73225  0.97567  1.0000
  H   H18       1.0  0.45478  0.26776  0.02434  1.0000
  H   H19       1.0  0.33458  0.50898  0.97385  1.0000
  H   H20       1.0  0.66544  0.49103  0.02617  1.0000
  H   H21       1.0  0.84814  0.66959  0.01678  1.0000
  H   H22       1.0  0.15188  0.33041  0.98321  1.0000
  H   H23       1.0  0.07835  0.88274  0.00722  1.0000
  H   H24       1.0  0.92166  0.11726  0.99278  1.0000
  C   C1        1.0  0.69149  0.26853  0.29190  1.0000
  C   C2        1.0  0.30850  0.73147  0.70810  1.0000
  C   C3        1.0  0.84751  0.37740  0.31750  1.0000
  C   C4        1.0  0.15249  0.62259  0.68251  1.0000
  C   C5        1.0  0.81553  0.49886  0.34851  1.0000
  C   C6        1.0  0.18446  0.50114  0.65150  1.0000
  C   C7        1.0  0.62369  0.50406  0.35053  1.0000
  C   C8        1.0  0.37630  0.49594  0.64947  1.0000
  C   C9        1.0  0.47593  0.39122  0.32287  1.0000
  C   C10       1.0  0.52406  0.60878  0.67713  1.0000
  C   C11       1.0  0.31458  0.73260  0.38402  1.0000
  C   C12       1.0  0.68543  0.26740  0.61599  1.0000
  C   C13       1.0  0.16624  0.62265  0.34503  1.0000
  C   C14       1.0  0.83376  0.37735  0.65497  1.0000
  C   C15       1.0  0.97593  0.61628  0.38097  1.0000
  C   C16       1.0  0.02407  0.38372  0.61904  1.0000
  C   C17       1.0  0.94487  0.72583  0.45130  1.0000
  C   C18       1.0  0.05512  0.27417  0.54870  1.0000
  C   C19       1.0  0.10030  0.83313  0.48431  1.0000
  C   C20       1.0  0.89970  0.16687  0.51569  1.0000
  C   C21       1.0  0.38924  0.71298  0.98413  1.0000
  C   C22       1.0  0.61077  0.28703  0.01587  1.0000
  C   C23       1.0  0.26874  0.58811  0.98488  1.0000
  C   C24       1.0  0.73128  0.41190  0.01514  1.0000
  C   C25       1.0  0.06734  0.56577  0.99788  1.0000
  C   C26       1.0  0.93268  0.43423  0.00213  1.0000
  C   C27       1.0  0.00073  0.67579  0.00610  1.0000
  C   C28       1.0  0.99928  0.32421  0.99390  1.0000
  C   C29       1.0  0.12937  0.79760  0.00324  1.0000
  C   C30       1.0  0.87064  0.20241  0.99677  1.0000
  N   N1        1.0  0.50850  0.27524  0.29452  1.0000
  N   N2        1.0  0.49150  0.72476  0.70547  1.0000
  N   N3        1.0  0.28302  0.83617  0.45361  1.0000
  N   N4        1.0  0.71697  0.16382  0.54639  1.0000
  N   N5        1.0  0.32197  0.81730  0.99373  1.0000
  N   N6        1.0  0.67804  0.18271  0.00628  1.0000
  O   O1        1.0  0.39057  0.03956  0.15152  1.0000
  O   O2        1.0  0.60943  0.96043  0.84849  1.0000
  O   O3        1.0  0.32759  0.09202  0.42443  1.0000
  O   O4        1.0  0.67240  0.90797  0.57557  1.0000
  O   O5        1.0  0.03240  0.93631  0.26198  1.0000
  O   O6        1.0  0.96760  0.06369  0.73802  1.0000
  O   O7        1.0  0.64118  0.96555  0.33851  1.0000
  O   O8        1.0  0.35881  0.03445  0.66149  1.0000
  O   O9        1.0  0.74072  0.94414  0.08707  1.0000
  O   O10       1.0  0.25928  0.05586  0.91293  1.0000
  O   O11       1.0  0.12658  0.19932  0.25545  1.0000
  O   O12       1.0  0.87342  0.80068  0.74454  1.0000
  O   O13       1.0  0.67062  0.72603  0.20620  1.0000
  O   O14       1.0  0.32937  0.27396  0.79380  1.0000
