data_image0
_chemical_formula_structural       Cu4P2H28C34I4N2
_chemical_formula_sum              "Cu4 P2 H28 C34 I4 N2"
_cell_length_a       7.67646
_cell_length_b       8.42991
_cell_length_c       14.2246
_cell_angle_alpha    77.1956
_cell_angle_beta     86.353
_cell_angle_gamma    86.4109

_space_group_name_H-M_alt    "P 1"
_space_group_IT_number       1

loop_
  _space_group_symop_operation_xyz
  'x, y, z'

loop_
  _atom_site_type_symbol
  _atom_site_label
  _atom_site_symmetry_multiplicity
  _atom_site_fract_x
  _atom_site_fract_y
  _atom_site_fract_z
  _atom_site_occupancy
  Cu  Cu1       1.0  0.92357  0.45536  0.58618  1.0000
  Cu  Cu2       1.0  0.07643  0.54464  0.41382  1.0000
  Cu  Cu3       1.0  0.28832  0.47228  0.55406  1.0000
  Cu  Cu4       1.0  0.71168  0.52772  0.44593  1.0000
  P   P1        1.0  0.02561  0.30030  0.72032  1.0000
  P   P2        1.0  0.97439  0.69970  0.27968  1.0000
  H   H1        1.0  0.12606  0.94239  0.78827  1.0000
  H   H2        1.0  0.87394  0.05761  0.21172  1.0000
  H   H3        1.0  0.36321  0.77066  0.72500  1.0000
  H   H4        1.0  0.63679  0.22934  0.27500  1.0000
  H   H5        1.0  0.57662  0.90713  0.59634  1.0000
  H   H6        1.0  0.42338  0.09288  0.40366  1.0000
  H   H7        1.0  0.53877  0.20858  0.53248  1.0000
  H   H8        1.0  0.46123  0.79142  0.46752  1.0000
  H   H9        1.0  0.80611  0.05622  0.68562  1.0000
  H   H10       1.0  0.19388  0.94378  0.31438  1.0000
  H   H11       1.0  0.93592  0.23582  0.93233  1.0000
  H   H12       1.0  0.06408  0.76418  0.06767  1.0000
  H   H13       1.0  0.75161  0.03002  0.03940  1.0000
  H   H14       1.0  0.24839  0.96998  0.96060  1.0000
  H   H15       1.0  0.60391  0.83104  0.97044  1.0000
  H   H16       1.0  0.39609  0.16896  0.02956  1.0000
  H   H17       1.0  0.63354  0.84308  0.79368  1.0000
  H   H18       1.0  0.36645  0.15692  0.20632  1.0000
  H   H19       1.0  0.89313  0.57368  0.79587  1.0000
  H   H20       1.0  0.10687  0.42632  0.20414  1.0000
  H   H21       1.0  0.37200  0.27287  0.81297  1.0000
  H   H22       1.0  0.62800  0.72713  0.18703  1.0000
  H   H23       1.0  0.48945  0.43475  0.91723  1.0000
  H   H24       1.0  0.51056  0.56525  0.08277  1.0000
  H   H25       1.0  0.30491  0.65822  0.96836  1.0000
  H   H26       1.0  0.69509  0.34177  0.03164  1.0000
  H   H27       1.0  0.00448  0.72515  0.90832  1.0000
  H   H28       1.0  0.99552  0.27484  0.09169  1.0000
  C   C1        1.0  0.20237  0.16297  0.68967  1.0000
  C   C2        1.0  0.79763  0.83703  0.31033  1.0000
  C   C3        1.0  0.21860  0.99681  0.73101  1.0000
  C   C4        1.0  0.78140  0.00319  0.26899  1.0000
  C   C5        1.0  0.35123  0.90167  0.69614  1.0000
  C   C6        1.0  0.64877  0.09834  0.30385  1.0000
  C   C7        1.0  0.46935  0.97733  0.62426  1.0000
  C   C8        1.0  0.53065  0.02267  0.37574  1.0000
  C   C9        1.0  0.44817  0.14410  0.58804  1.0000
  C   C10       1.0  0.55183  0.85591  0.41196  1.0000
  C   C11       1.0  0.79514  0.04996  0.76328  1.0000
  C   C12       1.0  0.20486  0.95005  0.23672  1.0000
  C   C13       1.0  0.88381  0.15945  0.80227  1.0000
  C   C14       1.0  0.11619  0.84055  0.19773  1.0000
  C   C15       1.0  0.86640  0.15198  0.90180  1.0000
  C   C16       1.0  0.13360  0.84802  0.09820  1.0000
  C   C17       1.0  0.76370  0.03576  0.96187  1.0000
  C   C18       1.0  0.23630  0.96424  0.03813  1.0000
  C   C19       1.0  0.68057  0.92401  0.92316  1.0000
  C   C20       1.0  0.31943  0.07599  0.07684  1.0000
  C   C21       1.0  0.69718  0.93097  0.82395  1.0000
  C   C22       1.0  0.30282  0.06903  0.17606  1.0000
  C   C23       1.0  0.02199  0.54049  0.82490  1.0000
  C   C24       1.0  0.97801  0.45951  0.17510  1.0000
  C   C25       1.0  0.12278  0.40989  0.79928  1.0000
  C   C26       1.0  0.87723  0.59011  0.20072  1.0000
  C   C27       1.0  0.29076  0.37159  0.83367  1.0000
  C   C28       1.0  0.70924  0.62841  0.16633  1.0000
  C   C29       1.0  0.35668  0.46265  0.89316  1.0000
  C   C30       1.0  0.64333  0.53735  0.10683  1.0000
  C   C31       1.0  0.25407  0.58879  0.92085  1.0000
  C   C32       1.0  0.74593  0.41120  0.07915  1.0000
  C   C33       1.0  0.08613  0.62710  0.88701  1.0000
  C   C34       1.0  0.91387  0.37289  0.11300  1.0000
  I   I1        1.0  0.91114  0.26279  0.45735  1.0000
  I   I2        1.0  0.08885  0.73721  0.54265  1.0000
  I   I3        1.0  0.40445  0.46342  0.36569  1.0000
  I   I4        1.0  0.59555  0.53658  0.63431  1.0000
  N   N1        1.0  0.31432  0.23535  0.61760  1.0000
  N   N2        1.0  0.68568  0.76465  0.38240  1.0000
