data_image0
_chemical_formula_structural       CuH12C14Cl2O8
_chemical_formula_sum              "Cu1 H12 C14 Cl2 O8"
_cell_length_a       3.70903
_cell_length_b       7.13274
_cell_length_c       14.8866
_cell_angle_alpha    78.0852
_cell_angle_beta     87.9586
_cell_angle_gamma    84.4385

_space_group_name_H-M_alt    "P 1"
_space_group_IT_number       1

loop_
  _space_group_symop_operation_xyz
  'x, y, z'

loop_
  _atom_site_type_symbol
  _atom_site_label
  _atom_site_symmetry_multiplicity
  _atom_site_fract_x
  _atom_site_fract_y
  _atom_site_fract_z
  _atom_site_occupancy
  Cu  Cu1       1.0  0.50000  0.50000  0.50000  1.0000
  H   H1        1.0  0.32801  0.83111  0.24611  1.0000
  H   H2        1.0  0.67198  0.16889  0.75389  1.0000
  H   H3        1.0  0.53041  0.93811  0.08552  1.0000
  H   H4        1.0  0.46958  0.06189  0.91448  1.0000
  H   H5        1.0  0.83566  0.46359  0.14899  1.0000
  H   H6        1.0  0.16434  0.53641  0.85100  1.0000
  H   H7        1.0  0.99300  0.37382  0.62269  1.0000
  H   H8        1.0  0.00700  0.62618  0.37731  1.0000
  H   H9        1.0  0.82847  0.19347  0.58815  1.0000
  H   H10       1.0  0.17153  0.80652  0.41185  1.0000
  H   H11       1.0  0.38654  0.13207  0.40995  1.0000
  H   H12       1.0  0.61345  0.86795  0.59004  1.0000
  C   C1        1.0  0.61432  0.26546  0.26118  1.0000
  C   C2        1.0  0.38569  0.73454  0.73882  1.0000
  C   C3        1.0  0.46528  0.08680  0.28865  1.0000
  C   C4        1.0  0.53473  0.91320  0.71135  1.0000
  C   C5        1.0  0.43843  0.96963  0.22506  1.0000
  C   C6        1.0  0.56159  0.03037  0.77494  1.0000
  C   C7        1.0  0.55160  0.02979  0.13473  1.0000
  C   C8        1.0  0.44839  0.97021  0.86527  1.0000
  C   C9        1.0  0.68931  0.20870  0.10692  1.0000
  C   C10       1.0  0.31068  0.79130  0.89308  1.0000
  C   C11       1.0  0.72281  0.32576  0.16924  1.0000
  C   C12       1.0  0.27719  0.67425  0.83076  1.0000
  C   C13       1.0  0.66588  0.39025  0.32705  1.0000
  C   C14       1.0  0.33413  0.60975  0.67295  1.0000
  Cl  Cl1       1.0  0.82660  0.28033  0.99348  1.0000
  Cl  Cl2       1.0  0.17341  0.71965  0.00652  1.0000
  O   O1        1.0  0.53115  0.33328  0.40998  1.0000
  O   O2        1.0  0.46886  0.66672  0.59001  1.0000
  O   O3        1.0  0.83067  0.53876  0.30340  1.0000
  O   O4        1.0  0.16934  0.46124  0.69660  1.0000
  O   O5        1.0  0.89544  0.32786  0.56820  1.0000
  O   O6        1.0  0.10456  0.67214  0.43180  1.0000
  O   O7        1.0  0.34727  0.02493  0.37688  1.0000
  O   O8        1.0  0.65271  0.97509  0.62311  1.0000
