data_image0
_chemical_formula_structural       ZnH24C26S2N6O10
_chemical_formula_sum              "Zn1 H24 C26 S2 N6 O10"
_cell_length_a       7.89656
_cell_length_b       8.3211
_cell_length_c       11.526
_cell_angle_alpha    103.397
_cell_angle_beta     105.94
_cell_angle_gamma    90.2502

_space_group_name_H-M_alt    "P 1"
_space_group_IT_number       1

loop_
  _space_group_symop_operation_xyz
  'x, y, z'

loop_
  _atom_site_type_symbol
  _atom_site_label
  _atom_site_symmetry_multiplicity
  _atom_site_fract_x
  _atom_site_fract_y
  _atom_site_fract_z
  _atom_site_occupancy
  Zn  Zn1       1.0  0.50001  1.00000  0.50000  1.0000
  H   H1        1.0  0.28745  0.69934  0.94189  1.0000
  H   H2        1.0  0.71254  0.30065  0.05810  1.0000
  H   H3        1.0  0.52860  0.02941  0.77714  1.0000
  H   H4        1.0  0.47141  0.97058  0.22287  1.0000
  H   H5        1.0  0.40258  0.64198  0.46369  1.0000
  H   H6        1.0  0.59741  0.35801  0.53631  1.0000
  H   H7        1.0  0.33995  0.44255  0.58109  1.0000
  H   H8        1.0  0.66004  0.55744  0.41890  1.0000
  H   H9        1.0  0.97889  0.25963  0.38090  1.0000
  H   H10       1.0  0.02112  0.74040  0.61911  1.0000
  H   H11       1.0  0.00694  0.57081  0.42921  1.0000
  H   H12       1.0  0.99305  0.42922  0.57079  1.0000
  H   H13       1.0  0.48137  0.84634  0.91089  1.0000
  H   H14       1.0  0.51864  0.15364  0.08911  1.0000
  H   H15       1.0  0.19729  0.70382  0.10097  1.0000
  H   H16       1.0  0.80271  0.29618  0.89902  1.0000
  H   H17       1.0  0.15089  0.24415  0.05430  1.0000
  H   H18       1.0  0.84910  0.75586  0.94571  1.0000
  H   H19       1.0  0.05120  0.09701  0.19376  1.0000
  H   H20       1.0  0.94880  0.90301  0.80625  1.0000
  H   H21       1.0  0.33905  0.22205  0.64630  1.0000
  H   H22       1.0  0.66095  0.77794  0.35370  1.0000
  H   H23       1.0  0.18824  0.09994  0.54423  1.0000
  H   H24       1.0  0.81176  0.90005  0.45576  1.0000
  C   C1        1.0  0.48692  0.89837  0.73814  1.0000
  C   C2        1.0  0.51309  0.10162  0.26186  1.0000
  C   C3        1.0  0.40305  0.62793  0.75594  1.0000
  C   C4        1.0  0.59694  0.37205  0.24406  1.0000
  C   C5        1.0  0.41808  0.68154  0.56303  1.0000
  C   C6        1.0  0.58192  0.31845  0.43697  1.0000
  C   C7        1.0  0.38429  0.57096  0.62884  1.0000
  C   C8        1.0  0.61570  0.42903  0.37115  1.0000
  C   C9        1.0  0.02511  0.32352  0.32139  1.0000
  C   C10       1.0  0.97489  0.67650  0.67861  1.0000
  C   C11       1.0  0.36431  0.50624  0.82463  1.0000
  C   C12       1.0  0.63569  0.49373  0.17536  1.0000
  C   C13       1.0  0.10015  0.57834  0.27317  1.0000
  C   C14       1.0  0.89985  0.42168  0.72683  1.0000
  C   C15       1.0  0.14506  0.48723  0.16734  1.0000
  C   C16       1.0  0.85494  0.51278  0.83266  1.0000
  C   C17       1.0  0.04093  0.49623  0.34902  1.0000
  C   C18       1.0  0.95907  0.50379  0.65098  1.0000
  C   C19       1.0  0.45712  0.79543  0.81123  1.0000
  C   C20       1.0  0.54288  0.20455  0.18877  1.0000
  C   C21       1.0  0.20622  0.56933  0.08619  1.0000
  C   C22       1.0  0.79377  0.43067  0.91380  1.0000
  C   C23       1.0  0.12365  0.31315  0.13919  1.0000
  C   C24       1.0  0.87634  0.68686  0.86081  1.0000
  C   C25       1.0  0.06554  0.23192  0.21547  1.0000
  C   C26       1.0  0.93446  0.76810  0.78454  1.0000
  S   S1        1.0  0.11650  0.80087  0.31392  1.0000
  S   S2        1.0  0.88350  0.19914  0.68607  1.0000
  N   N1        1.0  0.46777  0.84239  0.61578  1.0000
  N   N2        1.0  0.53223  0.15760  0.38422  1.0000
  N   N3        1.0  0.31089  0.57639  0.92665  1.0000
  N   N4        1.0  0.68910  0.42360  0.07335  1.0000
  N   N5        1.0  0.26556  0.48523  0.99820  1.0000
  N   N6        1.0  0.73444  0.51476  0.00180  1.0000
  O   O1        1.0  0.30926  0.84537  0.33958  1.0000
  O   O2        1.0  0.69075  0.15464  0.66043  1.0000
  O   O3        1.0  0.05734  0.85181  0.42593  1.0000
  O   O4        1.0  0.94265  0.14822  0.57406  1.0000
  O   O5        1.0  0.01106  0.85184  0.20504  1.0000
  O   O6        1.0  0.98895  0.14818  0.79495  1.0000
  O   O7        1.0  0.37810  0.35539  0.79061  1.0000
  O   O8        1.0  0.62190  0.64459  0.20939  1.0000
  O   O9        1.0  0.30616  0.15364  0.55927  1.0000
  O   O10       1.0  0.69385  0.84635  0.44073  1.0000
