data_image0
_chemical_formula_structural       Li4H40C20N4O20
_chemical_formula_sum              "Li4 H40 C20 N4 O20"
_cell_length_a       7.31244
_cell_length_b       9.70302
_cell_length_c       10.2622
_cell_angle_alpha    89.9999
_cell_angle_beta     90
_cell_angle_gamma    97.5854

_space_group_name_H-M_alt    "P 1"
_space_group_IT_number       1

loop_
  _space_group_symop_operation_xyz
  'x, y, z'

loop_
  _atom_site_type_symbol
  _atom_site_label
  _atom_site_symmetry_multiplicity
  _atom_site_fract_x
  _atom_site_fract_y
  _atom_site_fract_z
  _atom_site_occupancy
  Li  Li1       1.0  0.54103  0.85746  0.36232  1.0000
  Li  Li2       1.0  0.54103  0.35746  0.13768  1.0000
  Li  Li3       1.0  0.45897  0.14254  0.63768  1.0000
  Li  Li4       1.0  0.45897  0.64254  0.86232  1.0000
  H   H1        1.0  0.97855  0.68391  0.01055  1.0000
  H   H2        1.0  0.97855  0.18391  0.48946  1.0000
  H   H3        1.0  0.02145  0.31609  0.98946  1.0000
  H   H4        1.0  0.02145  0.81609  0.51054  1.0000
  H   H5        1.0  0.13454  0.61074  0.27667  1.0000
  H   H6        1.0  0.13454  0.11074  0.22333  1.0000
  H   H7        1.0  0.86546  0.38926  0.72333  1.0000
  H   H8        1.0  0.86546  0.88926  0.77667  1.0000
  H   H9        1.0  0.75249  0.66278  0.18953  1.0000
  H   H10       1.0  0.75250  0.16278  0.31047  1.0000
  H   H11       1.0  0.24750  0.33721  0.81047  1.0000
  H   H12       1.0  0.24750  0.83721  0.68953  1.0000
  H   H13       1.0  0.96890  0.50358  0.18505  1.0000
  H   H14       1.0  0.96890  0.00358  0.31495  1.0000
  H   H15       1.0  0.03110  0.49642  0.81495  1.0000
  H   H16       1.0  0.03110  0.99642  0.68505  1.0000
  H   H17       1.0  0.28543  0.79323  0.04773  1.0000
  H   H18       1.0  0.28543  0.29323  0.45227  1.0000
  H   H19       1.0  0.71457  0.20677  0.95227  1.0000
  H   H20       1.0  0.71457  0.70677  0.54773  1.0000
  H   H21       1.0  0.14203  0.91203  0.05122  1.0000
  H   H22       1.0  0.14203  0.41203  0.44878  1.0000
  H   H23       1.0  0.85797  0.08797  0.94878  1.0000
  H   H24       1.0  0.85797  0.58797  0.55122  1.0000
  H   H25       1.0  0.89719  0.77766  0.28799  1.0000
  H   H26       1.0  0.89719  0.27766  0.21201  1.0000
  H   H27       1.0  0.10281  0.22235  0.71201  1.0000
  H   H28       1.0  0.10281  0.72234  0.78799  1.0000
  H   H29       1.0  0.22656  0.86053  0.19491  1.0000
  H   H30       1.0  0.22656  0.36053  0.30509  1.0000
  H   H31       1.0  0.77344  0.13947  0.80509  1.0000
  H   H32       1.0  0.77344  0.63947  0.69491  1.0000
  H   H33       1.0  0.39718  0.62175  0.43112  1.0000
  H   H34       1.0  0.39718  0.12175  0.06888  1.0000
  H   H35       1.0  0.60282  0.37825  0.56888  1.0000
  H   H36       1.0  0.60282  0.87825  0.93112  1.0000
  H   H37       1.0  0.56809  0.56989  0.35940  1.0000
  H   H38       1.0  0.56810  0.06989  0.14060  1.0000
  H   H39       1.0  0.43190  0.43011  0.64060  1.0000
  H   H40       1.0  0.43190  0.93011  0.85940  1.0000
  C   C1        1.0  0.86027  0.75330  0.18589  1.0000
  C   C2        1.0  0.86027  0.25330  0.31411  1.0000
  C   C3        1.0  0.13973  0.24670  0.81411  1.0000
  C   C4        1.0  0.13973  0.74670  0.68589  1.0000
  C   C5        1.0  0.77091  0.87175  0.12677  1.0000
  C   C6        1.0  0.77091  0.37175  0.37323  1.0000
  C   C7        1.0  0.22909  0.12825  0.87323  1.0000
  C   C8        1.0  0.22909  0.62826  0.62677  1.0000
  C   C9        1.0  0.08859  0.58429  0.17646  1.0000
  C   C10       1.0  0.08859  0.08429  0.32354  1.0000
  C   C11       1.0  0.91141  0.41571  0.82354  1.0000
  C   C12       1.0  0.91141  0.91571  0.67646  1.0000
  C   C13       1.0  0.02251  0.70948  0.11077  1.0000
  C   C14       1.0  0.02251  0.20949  0.38923  1.0000
  C   C15       1.0  0.97748  0.29051  0.88923  1.0000
  C   C16       1.0  0.97749  0.79051  0.61077  1.0000
  C   C17       1.0  0.24061  0.52154  0.10498  1.0000
  C   C18       1.0  0.24061  0.02154  0.39503  1.0000
  C   C19       1.0  0.75940  0.47847  0.89502  1.0000
  C   C20       1.0  0.75940  0.97847  0.60498  1.0000
  N   N1        1.0  0.17810  0.82573  0.10088  1.0000
  N   N2        1.0  0.17810  0.32573  0.39912  1.0000
  N   N3        1.0  0.82190  0.17427  0.89912  1.0000
  N   N4        1.0  0.82190  0.67428  0.60087  1.0000
  O   O1        1.0  0.65335  0.92393  0.19669  1.0000
  O   O2        1.0  0.65335  0.42393  0.30331  1.0000
  O   O3        1.0  0.34665  0.07607  0.80331  1.0000
  O   O4        1.0  0.34665  0.57607  0.69669  1.0000
  O   O5        1.0  0.29726  0.41505  0.15732  1.0000
  O   O6        1.0  0.29726  0.91504  0.34268  1.0000
  O   O7        1.0  0.70274  0.58495  0.84268  1.0000
  O   O8        1.0  0.70274  0.08495  0.65732  1.0000
  O   O9        1.0  0.29969  0.57601  0.99910  1.0000
  O   O10       1.0  0.29969  0.07601  0.50090  1.0000
  O   O11       1.0  0.70031  0.42399  0.00090  1.0000
  O   O12       1.0  0.70031  0.92399  0.49909  1.0000
  O   O13       1.0  0.81449  0.90913  0.01089  1.0000
  O   O14       1.0  0.81449  0.40913  0.48911  1.0000
  O   O15       1.0  0.18551  0.09087  0.98911  1.0000
  O   O16       1.0  0.18551  0.59087  0.51089  1.0000
  O   O17       1.0  0.51853  0.65503  0.39130  1.0000
  O   O18       1.0  0.51853  0.15503  0.10870  1.0000
  O   O19       1.0  0.48147  0.34498  0.60871  1.0000
  O   O20       1.0  0.48147  0.84498  0.89130  1.0000
