data_image0
_chemical_formula_structural       CuH42C24N4O4
_chemical_formula_sum              "Cu1 H42 C24 N4 O4"
_cell_length_a       7.90208
_cell_length_b       8.95089
_cell_length_c       10.3826
_cell_angle_alpha    84.3608
_cell_angle_beta     74.2694
_cell_angle_gamma    80.3344

_space_group_name_H-M_alt    "P 1"
_space_group_IT_number       1

loop_
  _space_group_symop_operation_xyz
  'x, y, z'

loop_
  _atom_site_type_symbol
  _atom_site_label
  _atom_site_symmetry_multiplicity
  _atom_site_fract_x
  _atom_site_fract_y
  _atom_site_fract_z
  _atom_site_occupancy
  Cu  Cu1       1.0  0.49999  0.50002  0.50000  1.0000
  H   H1        1.0  0.37759  0.65027  0.32980  1.0000
  H   H2        1.0  0.62241  0.34970  0.67020  1.0000
  H   H3        1.0  0.80463  0.49944  0.41436  1.0000
  H   H4        1.0  0.19535  0.50056  0.58566  1.0000
  H   H5        1.0  0.72465  0.46948  0.20159  1.0000
  H   H6        1.0  0.27537  0.53053  0.79839  1.0000
  H   H7        1.0  0.52317  0.76751  0.11030  1.0000
  H   H8        1.0  0.47683  0.23250  0.88973  1.0000
  H   H9        1.0  0.56034  0.59301  0.03343  1.0000
  H   H10       1.0  0.43963  0.40701  0.96656  1.0000
  H   H11       1.0  0.88526  0.59128  0.96948  1.0000
  H   H12       1.0  0.11472  0.40876  0.03053  1.0000
  H   H13       1.0  0.77982  0.76170  0.90687  1.0000
  H   H14       1.0  0.22015  0.23837  0.09314  1.0000
  H   H15       1.0  0.80872  0.90184  0.09180  1.0000
  H   H16       1.0  0.19126  0.09818  0.90824  1.0000
  H   H17       1.0  0.01972  0.80594  0.01151  1.0000
  H   H18       1.0  0.98027  0.19410  0.98852  1.0000
  H   H19       1.0  0.98979  0.59788  0.19096  1.0000
  H   H20       1.0  0.01020  0.40215  0.80905  1.0000
  H   H21       1.0  0.96310  0.77481  0.26129  1.0000
  H   H22       1.0  0.03689  0.22521  0.73874  1.0000
  H   H23       1.0  0.62830  0.78506  0.31154  1.0000
  H   H24       1.0  0.37170  0.21493  0.68849  1.0000
  H   H25       1.0  0.89721  0.72964  0.46975  1.0000
  H   H26       1.0  0.10278  0.27036  0.53025  1.0000
  H   H27       1.0  0.87899  0.48893  0.61314  1.0000
  H   H28       1.0  0.12104  0.51108  0.38686  1.0000
  H   H29       1.0  0.86080  0.65570  0.69597  1.0000
  H   H30       1.0  0.13920  0.34430  0.30404  1.0000
  H   H31       1.0  0.34557  0.49553  0.16536  1.0000
  H   H32       1.0  0.65445  0.50444  0.83464  1.0000
  H   H33       1.0  0.47481  0.33926  0.22865  1.0000
  H   H34       1.0  0.52521  0.66071  0.77136  1.0000
  H   H35       1.0  0.64043  0.91743  0.46605  1.0000
  H   H36       1.0  0.35956  0.08257  0.53396  1.0000
  H   H37       1.0  0.65650  0.89413  0.63250  1.0000
  H   H38       1.0  0.34352  0.10586  0.36749  1.0000
  H   H39       1.0  0.49494  0.80786  0.58460  1.0000
  H   H40       1.0  0.50506  0.19213  0.41541  1.0000
  H   H41       1.0  0.00491  0.03786  0.35139  1.0000
  H   H42       1.0  0.99509  0.96209  0.64858  1.0000
  C   C1        1.0  0.63654  0.57928  0.22076  1.0000
  C   C2        1.0  0.36347  0.42072  0.77924  1.0000
  C   C3        1.0  0.61796  0.66208  0.08761  1.0000
  C   C4        1.0  0.38203  0.33794  0.91239  1.0000
  C   C5        1.0  0.79748  0.69848  0.99980  1.0000
  C   C6        1.0  0.20251  0.30156  0.00020  1.0000
  C   C7        1.0  0.88705  0.78812  0.07375  1.0000
  C   C8        1.0  0.11294  0.21191  0.92627  1.0000
  C   C9        1.0  0.90165  0.70759  0.20820  1.0000
  C   C10       1.0  0.09834  0.29244  0.79181  1.0000
  C   C11       1.0  0.71862  0.67674  0.29379  1.0000
  C   C12       1.0  0.28135  0.32327  0.70622  1.0000
  C   C13       1.0  0.76725  0.69397  0.51955  1.0000
  C   C14       1.0  0.23275  0.30602  0.48046  1.0000
  C   C15       1.0  0.79075  0.59543  0.64399  1.0000
  C   C16       1.0  0.20925  0.40456  0.35601  1.0000
  C   C17       1.0  0.37965  0.44283  0.25740  1.0000
  C   C18       1.0  0.62037  0.55716  0.74261  1.0000
  C   C19       1.0  0.63095  0.83602  0.55285  1.0000
  C   C20       1.0  0.36906  0.16396  0.44716  1.0000
  C   C21       1.0  0.82502  0.18275  0.50933  1.0000
  C   C22       1.0  0.17498  0.81721  0.49062  1.0000
  C   C23       1.0  0.96234  0.04983  0.45960  1.0000
  C   C24       1.0  0.03762  0.95009  0.54035  1.0000
  N   N1        1.0  0.46596  0.54626  0.31153  1.0000
  N   N2        1.0  0.53406  0.45373  0.68846  1.0000
  N   N3        1.0  0.72051  0.60175  0.42678  1.0000
  N   N4        1.0  0.27948  0.39825  0.57322  1.0000
  O   O1        1.0  0.78528  0.28118  0.42022  1.0000
  O   O2        1.0  0.21484  0.71888  0.57971  1.0000
  O   O3        1.0  0.76046  0.18999  0.63575  1.0000
  O   O4        1.0  0.23955  0.80990  0.36417  1.0000
