data_image0
_chemical_formula_structural       Cd3H24Au6C42N18
_chemical_formula_sum              "Cd3 H24 Au6 C42 N18"
_cell_length_a       8.94156
_cell_length_b       8.94169
_cell_length_c       19.871
_cell_angle_alpha    90.002
_cell_angle_beta     89.9988
_cell_angle_gamma    120.001

_space_group_name_H-M_alt    "P 1"
_space_group_IT_number       1

loop_
  _space_group_symop_operation_xyz
  'x, y, z'

loop_
  _atom_site_type_symbol
  _atom_site_label
  _atom_site_symmetry_multiplicity
  _atom_site_fract_x
  _atom_site_fract_y
  _atom_site_fract_z
  _atom_site_occupancy
  Cd  Cd1       1.0  0.63663  0.27325  0.16669  1.0000
  Cd  Cd2       1.0  0.72670  0.36335  0.50000  1.0000
  Cd  Cd3       1.0  0.63663  0.36338  0.83331  1.0000
  H   H1        1.0  0.38192  0.38150  0.09407  1.0000
  H   H2        1.0  0.61846  0.00046  0.42736  1.0000
  H   H3        1.0  0.99948  0.61795  0.76064  1.0000
  H   H4        1.0  0.61846  0.61800  0.57264  1.0000
  H   H5        1.0  0.38193  0.00042  0.90593  1.0000
  H   H6        1.0  0.99947  0.38153  0.23936  1.0000
  H   H7        1.0  0.36728  0.64390  0.05940  1.0000
  H   H8        1.0  0.35605  0.72338  0.39270  1.0000
  H   H9        1.0  0.27662  0.63268  0.72604  1.0000
  H   H10       1.0  0.35605  0.63266  0.60730  1.0000
  H   H11       1.0  0.36728  0.72338  0.94061  1.0000
  H   H12       1.0  0.27661  0.64394  0.27396  1.0000
  H   H13       1.0  0.63088  0.93676  0.07857  1.0000
  H   H14       1.0  0.06317  0.69409  0.41189  1.0000
  H   H15       1.0  0.30597  0.36916  0.74528  1.0000
  H   H16       1.0  0.06317  0.36908  0.58811  1.0000
  H   H17       1.0  0.63088  0.69412  0.92143  1.0000
  H   H18       1.0  0.30596  0.93681  0.25472  1.0000
  H   H19       1.0  0.88521  0.95472  0.13518  1.0000
  H   H20       1.0  0.04522  0.93045  0.46851  1.0000
  H   H21       1.0  0.06959  0.11485  0.80190  1.0000
  H   H22       1.0  0.04522  0.11476  0.53149  1.0000
  H   H23       1.0  0.88521  0.93048  0.86482  1.0000
  H   H24       1.0  0.06959  0.95474  0.19810  1.0000
  Au  Au1       1.0  0.09797  0.27678  0.98639  1.0000
  Au  Au2       1.0  0.72345  0.82129  0.31972  1.0000
  Au  Au3       1.0  0.17876  0.90201  0.65307  1.0000
  Au  Au4       1.0  0.72344  0.90216  0.68028  1.0000
  Au  Au5       1.0  0.09798  0.82119  0.01361  1.0000
  Au  Au6       1.0  0.17876  0.27676  0.34693  1.0000
  C   C1        1.0  0.91235  0.26600  0.04290  1.0000
  C   C2        1.0  0.73412  0.64639  0.37622  1.0000
  C   C3        1.0  0.35364  0.08766  0.70955  1.0000
  C   C4        1.0  0.73411  0.08773  0.62378  1.0000
  C   C5        1.0  0.91235  0.64634  0.95710  1.0000
  C   C6        1.0  0.35365  0.26599  0.29045  1.0000
  C   C7        1.0  0.28682  0.99411  0.06954  1.0000
  C   C8        1.0  0.00580  0.29263  0.40285  1.0000
  C   C9        1.0  0.70753  0.71332  0.73620  1.0000
  C   C10       1.0  0.00580  0.71317  0.59715  1.0000
  C   C11       1.0  0.28681  0.29270  0.93046  1.0000
  C   C12       1.0  0.70754  0.99421  0.26380  1.0000
  C   C13       1.0  0.48971  0.51156  0.10316  1.0000
  C   C14       1.0  0.48839  0.97816  0.43647  1.0000
  C   C15       1.0  0.02180  0.51021  0.76976  1.0000
  C   C16       1.0  0.48839  0.51024  0.56354  1.0000
  C   C17       1.0  0.48971  0.97814  0.89685  1.0000
  C   C18       1.0  0.02180  0.51159  0.23024  1.0000
  C   C19       1.0  0.48333  0.65754  0.08317  1.0000
  C   C20       1.0  0.34240  0.82578  0.41649  1.0000
  C   C21       1.0  0.17420  0.51663  0.74982  1.0000
  C   C22       1.0  0.34239  0.51662  0.58352  1.0000
  C   C23       1.0  0.48333  0.82579  0.91683  1.0000
  C   C24       1.0  0.17420  0.65757  0.25018  1.0000
  C   C25       1.0  0.62847  0.81886  0.09419  1.0000
  C   C26       1.0  0.18110  0.80959  0.42752  1.0000
  C   C27       1.0  0.19043  0.37154  0.76088  1.0000
  C   C28       1.0  0.18109  0.37151  0.57248  1.0000
  C   C29       1.0  0.62846  0.80960  0.90581  1.0000
  C   C30       1.0  0.19043  0.81889  0.23912  1.0000
  C   C31       1.0  0.77188  0.82893  0.12628  1.0000
  C   C32       1.0  0.17101  0.94291  0.45961  1.0000
  C   C33       1.0  0.05710  0.22814  0.79297  1.0000
  C   C34       1.0  0.17101  0.22810  0.54039  1.0000
  C   C35       1.0  0.77188  0.94295  0.87372  1.0000
  C   C36       1.0  0.05709  0.82896  0.20704  1.0000
  C   C37       1.0  0.76640  0.67685  0.14767  1.0000
  C   C38       1.0  0.32310  0.08954  0.48100  1.0000
  C   C39       1.0  0.91045  0.23359  0.81433  1.0000
  C   C40       1.0  0.32311  0.23356  0.51900  1.0000
  C   C41       1.0  0.76640  0.08956  0.85233  1.0000
  C   C42       1.0  0.91044  0.67685  0.18567  1.0000
  N   N1        1.0  0.80246  0.25785  0.07732  1.0000
  N   N2        1.0  0.74218  0.54460  0.41063  1.0000
  N   N3        1.0  0.45538  0.19759  0.74395  1.0000
  N   N4        1.0  0.74218  0.19758  0.58937  1.0000
  N   N5        1.0  0.80247  0.54461  0.92269  1.0000
  N   N6        1.0  0.45539  0.25781  0.25605  1.0000
  N   N7        1.0  0.39843  0.09432  0.10373  1.0000
  N   N8        1.0  0.90559  0.30403  0.43703  1.0000
  N   N9        1.0  0.69604  0.60166  0.77038  1.0000
  N   N10       1.0  0.90559  0.60155  0.56297  1.0000
  N   N11       1.0  0.39843  0.30411  0.89628  1.0000
  N   N12       1.0  0.69604  0.09438  0.22963  1.0000
  N   N13       1.0  0.62697  0.52161  0.13435  1.0000
  N   N14       1.0  0.47834  0.10536  0.46767  1.0000
  N   N15       1.0  0.89459  0.37296  0.80096  1.0000
  N   N16       1.0  0.47834  0.37298  0.53234  1.0000
  N   N17       1.0  0.62697  0.10536  0.86565  1.0000
  N   N18       1.0  0.89459  0.52163  0.19904  1.0000
