data_image0
_chemical_formula_structural       CoH30C26N4O8
_chemical_formula_sum              "Co1 H30 C26 N4 O8"
_cell_length_a       7.30819
_cell_length_b       9.33841
_cell_length_c       9.91021
_cell_angle_alpha    112.884
_cell_angle_beta     92.8029
_cell_angle_gamma    97.4408

_space_group_name_H-M_alt    "P 1"
_space_group_IT_number       1

loop_
  _space_group_symop_operation_xyz
  'x, y, z'

loop_
  _atom_site_type_symbol
  _atom_site_label
  _atom_site_symmetry_multiplicity
  _atom_site_fract_x
  _atom_site_fract_y
  _atom_site_fract_z
  _atom_site_occupancy
  Co  Co1       1.0  0.50000  0.50000  0.00000  1.0000
  H   H1        1.0  0.89516  0.54428  0.07783  1.0000
  H   H2        1.0  0.10484  0.45572  0.92217  1.0000
  H   H3        1.0  0.37117  0.66503  0.27290  1.0000
  H   H4        1.0  0.62884  0.33498  0.72711  1.0000
  H   H5        1.0  0.41379  0.75599  0.16693  1.0000
  H   H6        1.0  0.58621  0.24402  0.83307  1.0000
  H   H7        1.0  0.48838  0.08753  0.25465  1.0000
  H   H8        1.0  0.51163  0.91247  0.74535  1.0000
  H   H9        1.0  0.10674  0.48668  0.24843  1.0000
  H   H10       1.0  0.89326  0.51331  0.75156  1.0000
  H   H11       1.0  0.96720  0.36330  0.41330  1.0000
  H   H12       1.0  0.03280  0.63669  0.58669  1.0000
  H   H13       1.0  0.42832  0.36887  0.22055  1.0000
  H   H14       1.0  0.57169  0.63114  0.77945  1.0000
  H   H15       1.0  0.41670  0.11456  0.54865  1.0000
  H   H16       1.0  0.58330  0.88545  0.45136  1.0000
  H   H17       1.0  0.32239  0.96242  0.37638  1.0000
  H   H18       1.0  0.67762  0.03758  0.62363  1.0000
  H   H19       1.0  0.09746  0.13099  0.34585  1.0000
  H   H20       1.0  0.90254  0.86901  0.65415  1.0000
  H   H21       1.0  0.19873  0.28501  0.51454  1.0000
  H   H22       1.0  0.80127  0.71499  0.48546  1.0000
  H   H23       1.0  0.10561  0.11249  0.64953  1.0000
  H   H24       1.0  0.89439  0.88751  0.35047  1.0000
  H   H25       1.0  0.91655  0.15338  0.56191  1.0000
  H   H26       1.0  0.08345  0.84662  0.43808  1.0000
  H   H27       1.0  0.05506  0.77987  0.07075  1.0000
  H   H28       1.0  0.94493  0.22012  0.92925  1.0000
  H   H29       1.0  0.31671  0.93185  0.00952  1.0000
  H   H30       1.0  0.68328  0.06814  0.99047  1.0000
  C   C1        1.0  0.84094  0.49054  0.15012  1.0000
  C   C2        1.0  0.15906  0.50946  0.84988  1.0000
  C   C3        1.0  0.95732  0.45817  0.24612  1.0000
  C   C4        1.0  0.04268  0.54182  0.75387  1.0000
  C   C5        1.0  0.88007  0.39013  0.33697  1.0000
  C   C6        1.0  0.11994  0.60986  0.66303  1.0000
  C   C7        1.0  0.68697  0.35546  0.32728  1.0000
  C   C8        1.0  0.31303  0.64454  0.67272  1.0000
  C   C9        1.0  0.57886  0.39071  0.22808  1.0000
  C   C10       1.0  0.42114  0.60930  0.77192  1.0000
  C   C11       1.0  0.59228  0.29261  0.42805  1.0000
  C   C12       1.0  0.40772  0.70739  0.57195  1.0000
  C   C13       1.0  0.34803  0.09038  0.43917  1.0000
  C   C14       1.0  0.65197  0.90962  0.56084  1.0000
  C   C15       1.0  0.16562  0.15613  0.45609  1.0000
  C   C16       1.0  0.83438  0.84387  0.54391  1.0000
  C   C17       1.0  0.03482  0.08858  0.54027  1.0000
  C   C18       1.0  0.96519  0.91142  0.45973  1.0000
  C   C19       1.0  0.68833  0.81860  0.06324  1.0000
  C   C20       1.0  0.31166  0.18140  0.93676  1.0000
  C   C21       1.0  0.85120  0.91359  0.03422  1.0000
  C   C22       1.0  0.14879  0.08641  0.96577  1.0000
  C   C23       1.0  0.03027  0.87567  0.03902  1.0000
  C   C24       1.0  0.96972  0.12433  0.96098  1.0000
  C   C25       1.0  0.17763  0.96105  0.00444  1.0000
  C   C26       1.0  0.82236  0.03895  0.99555  1.0000
  N   N1        1.0  0.65358  0.45775  0.14042  1.0000
  N   N2        1.0  0.34642  0.54226  0.85958  1.0000
  N   N3        1.0  0.47286  0.15734  0.36121  1.0000
  N   N4        1.0  0.52714  0.84266  0.63879  1.0000
  O   O1        1.0  0.69360  0.66986  0.01555  1.0000
  O   O2        1.0  0.30640  0.33014  0.98446  1.0000
  O   O3        1.0  0.33807  0.66218  0.17366  1.0000
  O   O4        1.0  0.66193  0.33782  0.82634  1.0000
  O   O5        1.0  0.55697  0.88520  0.12581  1.0000
  O   O6        1.0  0.44303  0.11480  0.87419  1.0000
  O   O7        1.0  0.62198  0.36878  0.56469  1.0000
  O   O8        1.0  0.37803  0.63123  0.43532  1.0000
