data_image0
_chemical_formula_structural       Cu2H34C34N4O12
_chemical_formula_sum              "Cu2 H34 C34 N4 O12"
_cell_length_a       8.35498
_cell_length_b       8.90588
_cell_length_c       11.7324
_cell_angle_alpha    86.1478
_cell_angle_beta     69.4347
_cell_angle_gamma    87.1317

_space_group_name_H-M_alt    "P 1"
_space_group_IT_number       1

loop_
  _space_group_symop_operation_xyz
  'x, y, z'

loop_
  _atom_site_type_symbol
  _atom_site_label
  _atom_site_symmetry_multiplicity
  _atom_site_fract_x
  _atom_site_fract_y
  _atom_site_fract_z
  _atom_site_occupancy
  Cu  Cu1       1.0  0.00001  0.50000  1.00000  1.0000
  Cu  Cu2       1.0  0.50000  0.50000  1.00000  1.0000
  H   H1        1.0  0.35928  0.71247  0.19431  1.0000
  H   H2        1.0  0.64071  0.28753  0.80569  1.0000
  H   H3        1.0  0.72893  0.34553  0.08655  1.0000
  H   H4        1.0  0.27108  0.65447  0.91345  1.0000
  H   H5        1.0  0.84309  0.28595  0.95312  1.0000
  H   H6        1.0  0.15691  0.71405  0.04688  1.0000
  H   H7        1.0  0.02200  0.79664  0.80935  1.0000
  H   H8        1.0  0.97800  0.20336  0.19065  1.0000
  H   H9        1.0  0.43089  0.96572  0.24229  1.0000
  H   H10       1.0  0.56910  0.03428  0.75770  1.0000
  H   H11       1.0  0.68448  0.09580  0.09406  1.0000
  H   H12       1.0  0.31551  0.90420  0.90594  1.0000
  H   H13       1.0  0.77262  0.71054  0.87172  1.0000
  H   H14       1.0  0.22739  0.28946  0.12828  1.0000
  H   H15       1.0  0.28838  0.92951  0.71604  1.0000
  H   H16       1.0  0.71161  0.07048  0.28396  1.0000
  H   H17       1.0  0.16544  0.10102  0.72463  1.0000
  H   H18       1.0  0.83455  0.89897  0.27537  1.0000
  H   H19       1.0  0.27732  0.01202  0.51479  1.0000
  H   H20       1.0  0.72268  0.98797  0.48521  1.0000
  H   H21       1.0  0.18274  0.83524  0.56577  1.0000
  H   H22       1.0  0.81726  0.16476  0.43423  1.0000
  H   H23       1.0  0.98950  0.13928  0.57375  1.0000
  H   H24       1.0  0.01050  0.86072  0.42625  1.0000
  H   H25       1.0  0.89062  0.96673  0.63404  1.0000
  H   H26       1.0  0.10938  0.03327  0.36596  1.0000
  H   H27       1.0  0.19903  0.57115  0.35033  1.0000
  H   H28       1.0  0.80097  0.42885  0.64967  1.0000
  H   H29       1.0  0.05723  0.62155  0.57095  1.0000
  H   H30       1.0  0.94277  0.37845  0.42905  1.0000
  H   H31       1.0  0.38182  0.28504  0.66449  1.0000
  H   H32       1.0  0.61818  0.71495  0.33551  1.0000
  H   H33       1.0  0.52999  0.23904  0.44291  1.0000
  H   H34       1.0  0.47002  0.76097  0.55709  1.0000
  C   C1        1.0  0.46958  0.77283  0.13385  1.0000
  C   C2        1.0  0.53040  0.22718  0.86615  1.0000
  C   C3        1.0  0.51095  0.91297  0.15936  1.0000
  C   C4        1.0  0.48904  0.08704  0.84064  1.0000
  C   C5        1.0  0.65267  0.98456  0.07710  1.0000
  C   C6        1.0  0.34733  0.01544  0.92290  1.0000
  C   C7        1.0  0.75218  0.91298  0.97185  1.0000
  C   C8        1.0  0.24781  0.08702  0.02814  1.0000
  C   C9        1.0  0.70243  0.77218  0.95227  1.0000
  C   C10       1.0  0.29757  0.22782  0.04774  1.0000
  C   C11       1.0  0.89942  0.99500  0.88075  1.0000
  C   C12       1.0  0.10057  0.00501  0.11926  1.0000
  C   C13       1.0  0.16996  0.98082  0.70863  1.0000
  C   C14       1.0  0.83004  0.01918  0.29138  1.0000
  C   C15       1.0  0.16548  0.95639  0.58193  1.0000
  C   C16       1.0  0.83451  0.04360  0.41807  1.0000
  C   C17       1.0  0.00245  0.01677  0.56235  1.0000
  C   C18       1.0  0.99756  0.98323  0.43765  1.0000
  C   C19       1.0  0.46717  0.38249  0.24978  1.0000
  C   C20       1.0  0.53283  0.61751  0.75023  1.0000
  C   C21       1.0  0.37352  0.40221  0.38307  1.0000
  C   C22       1.0  0.62648  0.59779  0.61693  1.0000
  C   C23       1.0  0.24007  0.51006  0.41921  1.0000
  C   C24       1.0  0.75993  0.48994  0.58079  1.0000
  C   C25       1.0  0.16081  0.53792  0.54155  1.0000
  C   C26       1.0  0.83918  0.46207  0.45846  1.0000
  C   C27       1.0  0.21067  0.45703  0.63061  1.0000
  C   C28       1.0  0.78933  0.54296  0.36939  1.0000
  C   C29       1.0  0.34229  0.34701  0.59508  1.0000
  C   C30       1.0  0.65772  0.65299  0.40492  1.0000
  C   C31       1.0  0.42372  0.32046  0.47203  1.0000
  C   C32       1.0  0.57628  0.67954  0.52798  1.0000
  C   C33       1.0  0.12086  0.49511  0.76057  1.0000
  C   C34       1.0  0.87915  0.50489  0.23943  1.0000
  N   N1        1.0  0.56361  0.70452  0.03169  1.0000
  N   N2        1.0  0.43639  0.29548  0.96832  1.0000
  N   N3        1.0  0.02702  0.91253  0.80592  1.0000
  N   N4        1.0  0.97298  0.08747  0.19408  1.0000
  O   O1        1.0  0.40301  0.45800  0.17788  1.0000
  O   O2        1.0  0.59699  0.54200  0.82212  1.0000
  O   O3        1.0  0.80694  0.37885  0.00093  1.0000
  O   O4        1.0  0.19306  0.62115  0.99907  1.0000
  O   O5        1.0  0.60050  0.29884  0.21694  1.0000
  O   O6        1.0  0.39951  0.70117  0.78306  1.0000
  O   O7        1.0  0.15193  0.41214  0.84512  1.0000
  O   O8        1.0  0.84809  0.58787  0.15488  1.0000
  O   O9        1.0  0.01707  0.60658  0.78260  1.0000
  O   O10       1.0  0.98294  0.39342  0.21740  1.0000
  O   O11       1.0  0.89905  0.13632  0.87561  1.0000
  O   O12       1.0  0.10096  0.86367  0.12440  1.0000
