data_image0
_chemical_formula_structural       Zn2H12C32N8Cl8O8
_chemical_formula_sum              "Zn2 H12 C32 N8 Cl8 O8"
_cell_length_a       7.97365
_cell_length_b       9.88559
_cell_length_c       11.556
_cell_angle_alpha    105.789
_cell_angle_beta     91.7733
_cell_angle_gamma    96.2899

_space_group_name_H-M_alt    "P 1"
_space_group_IT_number       1

loop_
  _space_group_symop_operation_xyz
  'x, y, z'

loop_
  _atom_site_type_symbol
  _atom_site_label
  _atom_site_symmetry_multiplicity
  _atom_site_fract_x
  _atom_site_fract_y
  _atom_site_fract_z
  _atom_site_occupancy
  Zn  Zn1       1.0  0.13610  0.85228  0.98521  1.0000
  Zn  Zn2       1.0  0.86390  0.14772  0.01479  1.0000
  H   H1        1.0  0.74442  0.83523  0.87011  1.0000
  H   H2        1.0  0.25558  0.16477  0.12989  1.0000
  H   H3        1.0  0.58018  0.10973  0.16618  1.0000
  H   H4        1.0  0.41982  0.89027  0.83382  1.0000
  H   H5        1.0  0.93685  0.55744  0.10518  1.0000
  H   H6        1.0  0.06315  0.44257  0.89482  1.0000
  H   H7        1.0  0.34034  0.62548  0.20129  1.0000
  H   H8        1.0  0.65966  0.37452  0.79871  1.0000
  H   H9        1.0  0.62696  0.87413  0.47369  1.0000
  H   H10       1.0  0.37304  0.12587  0.52631  1.0000
  H   H11       1.0  0.17801  0.87753  0.27876  1.0000
  H   H12       1.0  0.82199  0.12247  0.72125  1.0000
  C   C1        1.0  0.80714  0.57247  0.12689  1.0000
  C   C2        1.0  0.19286  0.42753  0.87310  1.0000
  C   C3        1.0  0.73341  0.51859  0.21474  1.0000
  C   C4        1.0  0.26658  0.48141  0.78526  1.0000
  C   C5        1.0  0.56300  0.53645  0.24066  1.0000
  C   C6        1.0  0.43700  0.46355  0.75933  1.0000
  C   C7        1.0  0.47005  0.60995  0.18028  1.0000
  C   C8        1.0  0.52995  0.39004  0.81972  1.0000
  C   C9        1.0  0.54462  0.66589  0.09228  1.0000
  C   C10       1.0  0.45537  0.33410  0.90772  1.0000
  C   C11       1.0  0.71288  0.64628  0.06566  1.0000
  C   C12       1.0  0.28711  0.35371  0.93434  1.0000
  C   C13       1.0  0.45053  0.74360  0.02684  1.0000
  C   C14       1.0  0.54947  0.25640  0.97316  1.0000
  C   C15       1.0  0.78814  0.70935  0.97723  1.0000
  C   C16       1.0  0.21185  0.29065  0.02277  1.0000
  C   C17       1.0  0.74536  0.87024  0.42865  1.0000
  C   C18       1.0  0.25464  0.12976  0.57135  1.0000
  C   C19       1.0  0.87632  0.80636  0.46566  1.0000
  C   C20       1.0  0.12368  0.19364  0.53434  1.0000
  C   C21       1.0  0.03248  0.80689  0.41035  1.0000
  C   C22       1.0  0.96752  0.19311  0.58965  1.0000
  C   C23       1.0  0.05638  0.87264  0.31907  1.0000
  C   C24       1.0  0.94362  0.12736  0.68093  1.0000
  C   C25       1.0  0.92388  0.93566  0.28067  1.0000
  C   C26       1.0  0.07612  0.06435  0.71933  1.0000
  C   C27       1.0  0.76771  0.93441  0.33535  1.0000
  C   C28       1.0  0.23229  0.06559  0.66465  1.0000
  C   C29       1.0  0.94488  0.00263  0.18366  1.0000
  C   C30       1.0  0.05512  0.99737  0.81634  1.0000
  C   C31       1.0  0.62842  0.00101  0.29480  1.0000
  C   C32       1.0  0.37158  0.99899  0.70520  1.0000
  N   N1        1.0  0.52216  0.79855  0.94445  1.0000
  N   N2        1.0  0.47784  0.20145  0.05555  1.0000
  N   N3        1.0  0.68737  0.77908  0.92446  1.0000
  N   N4        1.0  0.31263  0.22092  0.07554  1.0000
  N   N5        1.0  0.81815  0.06217  0.14933  1.0000
  N   N6        1.0  0.18185  0.93783  0.85067  1.0000
  N   N7        1.0  0.66846  0.06225  0.20415  1.0000
  N   N8        1.0  0.33154  0.93775  0.79585  1.0000
  Cl  Cl1       1.0  0.47080  0.46629  0.34693  1.0000
  Cl  Cl2       1.0  0.52920  0.53371  0.65307  1.0000
  Cl  Cl3       1.0  0.84867  0.43137  0.29237  1.0000
  Cl  Cl4       1.0  0.15133  0.56863  0.70762  1.0000
  Cl  Cl5       1.0  0.84745  0.72724  0.58001  1.0000
  Cl  Cl6       1.0  0.15255  0.27276  0.41999  1.0000
  Cl  Cl7       1.0  0.19399  0.72740  0.45535  1.0000
  Cl  Cl8       1.0  0.80601  0.27260  0.54465  1.0000
  O   O1        1.0  0.29519  0.75651  0.05193  1.0000
  O   O2        1.0  0.70481  0.24349  0.94807  1.0000
  O   O3        1.0  0.94188  0.70100  0.95037  1.0000
  O   O4        1.0  0.05812  0.29900  0.04963  1.0000
  O   O5        1.0  0.08474  0.00649  0.12802  1.0000
  O   O6        1.0  0.91526  0.99351  0.87198  1.0000
  O   O7        1.0  0.48591  0.00332  0.33535  1.0000
  O   O8        1.0  0.51409  0.99669  0.66466  1.0000
