data_image0
_chemical_formula_structural       CuAg2H6C14N2O10
_chemical_formula_sum              "Cu1 Ag2 H6 C14 N2 O10"
_cell_length_a       5.05691
_cell_length_b       8.87092
_cell_length_c       8.97382
_cell_angle_alpha    95.2667
_cell_angle_beta     95.5443
_cell_angle_gamma    102.985

_space_group_name_H-M_alt    "P 1"
_space_group_IT_number       1

loop_
  _space_group_symop_operation_xyz
  'x, y, z'

loop_
  _atom_site_type_symbol
  _atom_site_label
  _atom_site_symmetry_multiplicity
  _atom_site_fract_x
  _atom_site_fract_y
  _atom_site_fract_z
  _atom_site_occupancy
  Cu  Cu1       1.0  1.00000  1.00000  0.00000  1.0000
  Ag  Ag1       1.0  0.58900  0.96692  0.35130  1.0000
  Ag  Ag2       1.0  0.41099  0.03308  0.64870  1.0000
  H   H1        1.0  0.29229  0.55914  0.44983  1.0000
  H   H2        1.0  0.70770  0.44086  0.55017  1.0000
  H   H3        1.0  0.00623  0.68370  0.27871  1.0000
  H   H4        1.0  0.99376  0.31630  0.72130  1.0000
  H   H5        1.0  0.69950  0.52033  0.06186  1.0000
  H   H6        1.0  0.30051  0.47967  0.93814  1.0000
  C   C1        1.0  0.14335  0.33266  0.32561  1.0000
  C   C2        1.0  0.85666  0.66733  0.67439  1.0000
  C   C3        1.0  0.15988  0.49112  0.35266  1.0000
  C   C4        1.0  0.84012  0.50889  0.64734  1.0000
  C   C5        1.0  0.00061  0.56030  0.25732  1.0000
  C   C6        1.0  0.99939  0.43970  0.74268  1.0000
  C   C7        1.0  0.82689  0.46848  0.13652  1.0000
  C   C8        1.0  0.17312  0.53153  0.86348  1.0000
  C   C9        1.0  0.81376  0.31012  0.11019  1.0000
  C   C10       1.0  0.18625  0.68988  0.88981  1.0000
  C   C11       1.0  0.29791  0.23723  0.41573  1.0000
  C   C12       1.0  0.70209  0.76277  0.58427  1.0000
  C   C13       1.0  0.63441  0.20914  0.97738  1.0000
  C   C14       1.0  0.36559  0.79086  0.02262  1.0000
  N   N1        1.0  0.97281  0.24721  0.20598  1.0000
  N   N2        1.0  0.02720  0.75279  0.79402  1.0000
  O   O1        1.0  0.95013  0.09278  0.19534  1.0000
  O   O2        1.0  0.04988  0.90722  0.80466  1.0000
  O   O3        1.0  0.50206  0.20705  0.35906  1.0000
  O   O4        1.0  0.49794  0.79295  0.64093  1.0000
  O   O5        1.0  0.20758  0.19793  0.53646  1.0000
  O   O6        1.0  0.79242  0.80207  0.46354  1.0000
  O   O7        1.0  0.72630  0.10135  0.90624  1.0000
  O   O8        1.0  0.27369  0.89865  0.09376  1.0000
  O   O9        1.0  0.41252  0.24106  0.93685  1.0000
  O   O10       1.0  0.58749  0.75895  0.06314  1.0000
