data_image0
_chemical_formula_structural       Cu2H20C26N4O12
_chemical_formula_sum              "Cu2 H20 C26 N4 O12"
_cell_length_a       8.79383
_cell_length_b       9.65065
_cell_length_c       9.85856
_cell_angle_alpha    100.565
_cell_angle_beta     115.224
_cell_angle_gamma    102.509

_space_group_name_H-M_alt    "P 1"
_space_group_IT_number       1

loop_
  _space_group_symop_operation_xyz
  'x, y, z'

loop_
  _atom_site_type_symbol
  _atom_site_label
  _atom_site_symmetry_multiplicity
  _atom_site_fract_x
  _atom_site_fract_y
  _atom_site_fract_z
  _atom_site_occupancy
  Cu  Cu1       1.0  0.16919  0.24563  0.35957  1.0000
  Cu  Cu2       1.0  0.83080  0.75437  0.64042  1.0000
  H   H1        1.0  0.31567  0.98650  0.93833  1.0000
  H   H2        1.0  0.68433  0.01349  0.06167  1.0000
  H   H3        1.0  0.53053  0.18069  0.90399  1.0000
  H   H4        1.0  0.46948  0.81929  0.09601  1.0000
  H   H5        1.0  0.65705  0.44218  0.08627  1.0000
  H   H6        1.0  0.34297  0.55780  0.91374  1.0000
  H   H7        1.0  0.97221  0.39753  0.45800  1.0000
  H   H8        1.0  0.02782  0.60247  0.54203  1.0000
  H   H9        1.0  0.73521  0.34119  0.53399  1.0000
  H   H10       1.0  0.26483  0.65882  0.46605  1.0000
  H   H11       1.0  0.67436  0.87283  0.37467  1.0000
  H   H12       1.0  0.32562  0.12718  0.62531  1.0000
  H   H13       1.0  0.91728  0.95231  0.30891  1.0000
  H   H14       1.0  0.08269  0.04770  0.69106  1.0000
  H   H15       1.0  0.53141  0.16781  0.56956  1.0000
  H   H16       1.0  0.46860  0.83223  0.43046  1.0000
  H   H17       1.0  0.11379  0.43217  0.15884  1.0000
  H   H18       1.0  0.88621  0.56782  0.84114  1.0000
  H   H19       1.0  0.95423  0.27971  0.06754  1.0000
  H   H20       1.0  0.04577  0.72029  0.93245  1.0000
  C   C1        1.0  0.20609  0.01442  0.14967  1.0000
  C   C2        1.0  0.79389  0.98558  0.85031  1.0000
  C   C3        1.0  0.33410  0.13593  0.13421  1.0000
  C   C4        1.0  0.66589  0.86407  0.86579  1.0000
  C   C5        1.0  0.37704  0.10168  0.01453  1.0000
  C   C6        1.0  0.62298  0.89830  0.98548  1.0000
  C   C7        1.0  0.49378  0.20891  0.99527  1.0000
  C   C8        1.0  0.50622  0.79108  0.00473  1.0000
  C   C9        1.0  0.56535  0.35457  0.09696  1.0000
  C   C10       1.0  0.43467  0.64541  0.90305  1.0000
  C   C11       1.0  0.52077  0.38901  0.21504  1.0000
  C   C12       1.0  0.47924  0.61097  0.78496  1.0000
  C   C13       1.0  0.58677  0.54482  0.32870  1.0000
  C   C14       1.0  0.41324  0.45517  0.67129  1.0000
  C   C15       1.0  0.90357  0.28378  0.44400  1.0000
  C   C16       1.0  0.09645  0.71623  0.55602  1.0000
  C   C17       1.0  0.77222  0.25089  0.48653  1.0000
  C   C18       1.0  0.22780  0.74914  0.51350  1.0000
  C   C19       1.0  0.68602  0.10144  0.46509  1.0000
  C   C20       1.0  0.31398  0.89857  0.53492  1.0000
  C   C21       1.0  0.73735  0.99128  0.39724  1.0000
  C   C22       1.0  0.26264  0.00874  0.60276  1.0000
  C   C23       1.0  0.87202  0.03351  0.35997  1.0000
  C   C24       1.0  0.12796  0.96650  0.64002  1.0000
  C   C25       1.0  0.55005  0.06958  0.51210  1.0000
  C   C26       1.0  0.44993  0.93041  0.48791  1.0000
  N   N1        1.0  0.41011  0.27988  0.23371  1.0000
  N   N2        1.0  0.58989  0.72011  0.76629  1.0000
  N   N3        1.0  0.95624  0.17786  0.38481  1.0000
  N   N4        1.0  0.04376  0.82215  0.61521  1.0000
  O   O1        1.0  0.11689  0.04926  0.21751  1.0000
  O   O2        1.0  0.88310  0.95074  0.78248  1.0000
  O   O3        1.0  0.19071  0.88333  0.08796  1.0000
  O   O4        1.0  0.80926  0.11667  0.91203  1.0000
  O   O5        1.0  0.39238  0.32209  0.36072  1.0000
  O   O6        1.0  0.60761  0.67791  0.63928  1.0000
  O   O7        1.0  0.49869  0.62849  0.28562  1.0000
  O   O8        1.0  0.50132  0.37151  0.71437  1.0000
  O   O9        1.0  0.73310  0.57222  0.45546  1.0000
  O   O10       1.0  0.26689  0.42777  0.54454  1.0000
  O   O11       1.0  0.02608  0.36109  0.16993  1.0000
  O   O12       1.0  0.97392  0.63890  0.83005  1.0000
