data_image0
_chemical_formula_structural       Sr4H12C12O28
_chemical_formula_sum              "Sr4 H12 C12 O28"
_cell_length_a       5.73131
_cell_length_b       6.40839
_cell_length_c       17.0169
_cell_angle_alpha    89.9999
_cell_angle_beta     90
_cell_angle_gamma    97.8732

_space_group_name_H-M_alt    "P 1"
_space_group_IT_number       1

loop_
  _space_group_symop_operation_xyz
  'x, y, z'

loop_
  _atom_site_type_symbol
  _atom_site_label
  _atom_site_symmetry_multiplicity
  _atom_site_fract_x
  _atom_site_fract_y
  _atom_site_fract_z
  _atom_site_occupancy
  Sr  Sr1       1.0  0.73278  0.87852  0.41954  1.0000
  Sr  Sr2       1.0  0.76722  0.62148  0.91954  1.0000
  Sr  Sr3       1.0  0.26722  0.12148  0.58046  1.0000
  Sr  Sr4       1.0  0.23278  0.37852  0.08046  1.0000
  H   H1        1.0  0.46726  0.71710  0.57018  1.0000
  H   H2        1.0  0.03274  0.78290  0.07018  1.0000
  H   H3        1.0  0.53274  0.28290  0.42982  1.0000
  H   H4        1.0  0.96726  0.21710  0.92982  1.0000
  H   H5        1.0  0.69498  0.86966  0.60527  1.0000
  H   H6        1.0  0.80502  0.63034  0.10527  1.0000
  H   H7        1.0  0.30502  0.13034  0.39473  1.0000
  H   H8        1.0  0.19498  0.36966  0.89473  1.0000
  H   H9        1.0  0.99200  0.64230  0.25498  1.0000
  H   H10       1.0  0.50800  0.85770  0.75498  1.0000
  H   H11       1.0  0.00800  0.35770  0.74502  1.0000
  H   H12       1.0  0.49200  0.14230  0.24502  1.0000
  C   C1        1.0  0.57536  0.63275  0.23839  1.0000
  C   C2        1.0  0.92464  0.86724  0.73839  1.0000
  C   C3        1.0  0.42464  0.36724  0.76161  1.0000
  C   C4        1.0  0.07536  0.13276  0.26161  1.0000
  C   C5        1.0  0.09381  0.58511  0.51847  1.0000
  C   C6        1.0  0.40619  0.91490  0.01847  1.0000
  C   C7        1.0  0.90619  0.41490  0.48153  1.0000
  C   C8        1.0  0.59381  0.08511  0.98153  1.0000
  C   C9        1.0  0.33658  0.65296  0.27922  1.0000
  C   C10       1.0  0.16342  0.84704  0.77922  1.0000
  C   C11       1.0  0.66342  0.34704  0.72078  1.0000
  C   C12       1.0  0.83658  0.15296  0.22078  1.0000
  O   O1        1.0  0.15624  0.61878  0.23066  1.0000
  O   O2        1.0  0.34377  0.88122  0.73065  1.0000
  O   O3        1.0  0.84376  0.38122  0.76934  1.0000
  O   O4        1.0  0.65624  0.11877  0.26934  1.0000
  O   O5        1.0  0.75618  0.67580  0.28199  1.0000
  O   O6        1.0  0.74382  0.82420  0.78199  1.0000
  O   O7        1.0  0.24382  0.32419  0.71801  1.0000
  O   O8        1.0  0.25618  0.17581  0.21801  1.0000
  O   O9        1.0  0.56987  0.85712  0.56440  1.0000
  O   O10       1.0  0.93013  0.64289  0.06440  1.0000
  O   O11       1.0  0.43013  0.14289  0.43560  1.0000
  O   O12       1.0  0.06987  0.35712  0.93560  1.0000
  O   O13       1.0  0.06836  0.77645  0.50824  1.0000
  O   O14       1.0  0.43164  0.72355  0.00824  1.0000
  O   O15       1.0  0.93164  0.22355  0.49176  1.0000
  O   O16       1.0  0.56836  0.27645  0.99176  1.0000
  O   O17       1.0  0.57115  0.57920  0.16740  1.0000
  O   O18       1.0  0.92886  0.92080  0.66740  1.0000
  O   O19       1.0  0.42885  0.42080  0.83260  1.0000
  O   O20       1.0  0.07114  0.07920  0.33260  1.0000
  O   O21       1.0  0.25960  0.51826  0.55620  1.0000
  O   O22       1.0  0.24040  0.98175  0.05620  1.0000
  O   O23       1.0  0.74040  0.48174  0.44380  1.0000
  O   O24       1.0  0.75960  0.01826  0.94379  1.0000
  O   O25       1.0  0.32766  0.69877  0.34935  1.0000
  O   O26       1.0  0.17234  0.80123  0.84935  1.0000
  O   O27       1.0  0.67234  0.30123  0.65065  1.0000
  O   O28       1.0  0.82766  0.19877  0.15065  1.0000
