data_image0
_chemical_formula_structural       Y2H22C32N4O28
_chemical_formula_sum              "Y2 H22 C32 N4 O28"
_cell_length_a       9.1334
_cell_length_b       10.0217
_cell_length_c       13.2286
_cell_angle_alpha    113.814
_cell_angle_beta     96.5767
_cell_angle_gamma    111.487

_space_group_name_H-M_alt    "P 1"
_space_group_IT_number       1

loop_
  _space_group_symop_operation_xyz
  'x, y, z'

loop_
  _atom_site_type_symbol
  _atom_site_label
  _atom_site_symmetry_multiplicity
  _atom_site_fract_x
  _atom_site_fract_y
  _atom_site_fract_z
  _atom_site_occupancy
  Y   Y1        1.0  0.20123  0.43753  0.46667  1.0000
  Y   Y2        1.0  0.79878  0.56246  0.53332  1.0000
  H   H1        1.0  0.88387  0.96084  0.24983  1.0000
  H   H2        1.0  0.11612  0.03915  0.75017  1.0000
  H   H3        1.0  0.48747  0.67576  0.15647  1.0000
  H   H4        1.0  0.51249  0.32424  0.84353  1.0000
  H   H5        1.0  0.11581  0.40517  0.82208  1.0000
  H   H6        1.0  0.88418  0.59485  0.17790  1.0000
  H   H7        1.0  0.59328  0.78408  0.88171  1.0000
  H   H8        1.0  0.40673  0.21592  0.11830  1.0000
  H   H9        1.0  0.71566  0.27985  0.64111  1.0000
  H   H10       1.0  0.28435  0.72014  0.35889  1.0000
  H   H11       1.0  0.18474  0.04543  0.54860  1.0000
  H   H12       1.0  0.81528  0.95458  0.45141  1.0000
  H   H13       1.0  0.46685  0.86390  0.69243  1.0000
  H   H14       1.0  0.53317  0.13611  0.30758  1.0000
  H   H15       1.0  0.09876  0.42194  0.23637  1.0000
  H   H16       1.0  0.90123  0.57804  0.76362  1.0000
  H   H17       1.0  0.99031  0.49333  0.31256  1.0000
  H   H18       1.0  0.00969  0.50667  0.68744  1.0000
  H   H19       1.0  0.38240  0.32769  0.30531  1.0000
  H   H20       1.0  0.61761  0.67231  0.69469  1.0000
  H   H21       1.0  0.21215  0.17117  0.25954  1.0000
  H   H22       1.0  0.78786  0.82882  0.74046  1.0000
  C   C1        1.0  0.55784  0.74422  0.02670  1.0000
  C   C2        1.0  0.44214  0.25578  0.97330  1.0000
  C   C3        1.0  0.44960  0.65479  0.06825  1.0000
  C   C4        1.0  0.55037  0.34522  0.93175  1.0000
  C   C5        1.0  0.29026  0.53820  0.99408  1.0000
  C   C6        1.0  0.70972  0.46181  0.00591  1.0000
  C   C7        1.0  0.23843  0.50218  0.87903  1.0000
  C   C8        1.0  0.76156  0.49784  0.12096  1.0000
  C   C9        1.0  0.34959  0.58923  0.83753  1.0000
  C   C10       1.0  0.65041  0.41077  0.16246  1.0000
  C   C11       1.0  0.50727  0.71233  0.91204  1.0000
  C   C12       1.0  0.49273  0.28767  0.08795  1.0000
  C   C13       1.0  0.72598  0.88031  0.10417  1.0000
  C   C14       1.0  0.27398  0.11969  0.89584  1.0000
  C   C15       1.0  0.29973  0.54779  0.71309  1.0000
  C   C16       1.0  0.70029  0.45221  0.28690  1.0000
  C   C17       1.0  0.60166  0.18610  0.63571  1.0000
  C   C18       1.0  0.39835  0.81391  0.36431  1.0000
  C   C19       1.0  0.44875  0.17395  0.59029  1.0000
  C   C20       1.0  0.55126  0.82606  0.40971  1.0000
  C   C21       1.0  0.30305  0.05316  0.58388  1.0000
  C   C22       1.0  0.69696  0.94685  0.41613  1.0000
  C   C23       1.0  0.30877  0.93979  0.61836  1.0000
  C   C24       1.0  0.69124  0.06020  0.38164  1.0000
  C   C25       1.0  0.46050  0.95176  0.66581  1.0000
  C   C26       1.0  0.53951  0.04825  0.33420  1.0000
  C   C27       1.0  0.60416  0.07697  0.67490  1.0000
  C   C28       1.0  0.39585  0.92304  0.32511  1.0000
  C   C29       1.0  0.43982  0.28665  0.54449  1.0000
  C   C30       1.0  0.56019  0.71334  0.45552  1.0000
  C   C31       1.0  0.14933  0.80276  0.59852  1.0000
  C   C32       1.0  0.85068  0.19723  0.40148  1.0000
  N   N1        1.0  0.17280  0.44850  0.03834  1.0000
  N   N2        1.0  0.82716  0.55150  0.96164  1.0000
  N   N3        1.0  0.76419  0.08786  0.72107  1.0000
  N   N4        1.0  0.23583  0.91215  0.27894  1.0000
  O   O1        1.0  0.40606  0.60991  0.66989  1.0000
  O   O2        1.0  0.59395  0.39009  0.33011  1.0000
  O   O3        1.0  0.14997  0.44753  0.64955  1.0000
  O   O4        1.0  0.85004  0.55247  0.35044  1.0000
  O   O5        1.0  0.02770  0.35690  0.97646  1.0000
  O   O6        1.0  0.97226  0.64312  0.02352  1.0000
  O   O7        1.0  0.22765  0.47198  0.13827  1.0000
  O   O8        1.0  0.77232  0.52800  0.86170  1.0000
  O   O9        1.0  0.78751  0.85636  0.18931  1.0000
  O   O10       1.0  0.21247  0.14364  0.81069  1.0000
  O   O11       1.0  0.79557  0.99952  0.09116  1.0000
  O   O12       1.0  0.20440  0.00051  0.90886  1.0000
  O   O13       1.0  0.29861  0.27457  0.50912  1.0000
  O   O14       1.0  0.70139  0.72541  0.49088  1.0000
  O   O15       1.0  0.57385  0.38462  0.54271  1.0000
  O   O16       1.0  0.42616  0.61536  0.45728  1.0000
  O   O17       1.0  0.88354  0.15962  0.69504  1.0000
  O   O18       1.0  0.11648  0.84039  0.30496  1.0000
  O   O19       1.0  0.77015  0.02209  0.78271  1.0000
  O   O20       1.0  0.22986  0.97791  0.21729  1.0000
  O   O21       1.0  0.13216  0.65711  0.55402  1.0000
  O   O22       1.0  0.86785  0.34288  0.44598  1.0000
  O   O23       1.0  0.03037  0.83429  0.62242  1.0000
  O   O24       1.0  0.96965  0.16571  0.37758  1.0000
  O   O25       1.0  0.07584  0.45376  0.31098  1.0000
  O   O26       1.0  0.92416  0.54623  0.68902  1.0000
  O   O27       1.0  0.26225  0.29081  0.29551  1.0000
  O   O28       1.0  0.73776  0.70918  0.70449  1.0000
