data_image0
_chemical_formula_structural       Er2H22C32N4O28
_chemical_formula_sum              "Er2 H22 C32 N4 O28"
_cell_length_a       9.11495
_cell_length_b       9.98948
_cell_length_c       13.1772
_cell_angle_alpha    114.178
_cell_angle_beta     96.1238
_cell_angle_gamma    111.54

_space_group_name_H-M_alt    "P 1"
_space_group_IT_number       1

loop_
  _space_group_symop_operation_xyz
  'x, y, z'

loop_
  _atom_site_type_symbol
  _atom_site_label
  _atom_site_symmetry_multiplicity
  _atom_site_fract_x
  _atom_site_fract_y
  _atom_site_fract_z
  _atom_site_occupancy
  Er  Er1       1.0  0.20302  0.43855  0.46765  1.0000
  Er  Er2       1.0  0.79697  0.56144  0.53235  1.0000
  H   H1        1.0  0.88706  0.96691  0.24683  1.0000
  H   H2        1.0  0.11295  0.03311  0.75317  1.0000
  H   H3        1.0  0.58821  0.79268  0.88192  1.0000
  H   H4        1.0  0.41180  0.20732  0.11807  1.0000
  H   H5        1.0  0.48989  0.67730  0.15635  1.0000
  H   H6        1.0  0.51013  0.32272  0.84365  1.0000
  H   H7        1.0  0.11601  0.40464  0.82223  1.0000
  H   H8        1.0  0.88400  0.59538  0.17779  1.0000
  H   H9        1.0  0.81677  0.95489  0.45074  1.0000
  H   H10       1.0  0.18322  0.04509  0.54925  1.0000
  H   H11       1.0  0.53403  0.13509  0.30637  1.0000
  H   H12       1.0  0.46595  0.86490  0.69363  1.0000
  H   H13       1.0  0.28535  0.71820  0.35857  1.0000
  H   H14       1.0  0.71464  0.28179  0.64143  1.0000
  H   H15       1.0  0.99295  0.49217  0.31383  1.0000
  H   H16       1.0  0.00705  0.50783  0.68617  1.0000
  H   H17       1.0  0.10112  0.41788  0.23734  1.0000
  H   H18       1.0  0.89888  0.58211  0.76266  1.0000
  H   H19       1.0  0.38406  0.32860  0.30686  1.0000
  H   H20       1.0  0.61594  0.67140  0.69314  1.0000
  H   H21       1.0  0.21513  0.17080  0.26224  1.0000
  H   H22       1.0  0.78487  0.82920  0.73776  1.0000
  C   C1        1.0  0.29769  0.54980  0.71270  1.0000
  C   C2        1.0  0.70231  0.45019  0.28730  1.0000
  C   C3        1.0  0.34782  0.59245  0.83768  1.0000
  C   C4        1.0  0.65220  0.40756  0.16233  1.0000
  C   C5        1.0  0.50440  0.71870  0.91243  1.0000
  C   C6        1.0  0.49562  0.28131  0.08757  1.0000
  C   C7        1.0  0.55636  0.75016  0.02706  1.0000
  C   C8        1.0  0.44364  0.24985  0.97293  1.0000
  C   C9        1.0  0.45053  0.65717  0.06831  1.0000
  C   C10       1.0  0.54949  0.34284  0.93170  1.0000
  C   C11       1.0  0.29141  0.53870  0.99437  1.0000
  C   C12       1.0  0.70860  0.46132  0.00564  1.0000
  C   C13       1.0  0.23824  0.50314  0.87929  1.0000
  C   C14       1.0  0.76178  0.49687  0.12072  1.0000
  C   C15       1.0  0.72282  0.88962  0.10522  1.0000
  C   C16       1.0  0.27719  0.11037  0.89476  1.0000
  C   C17       1.0  0.56114  0.71242  0.45542  1.0000
  C   C18       1.0  0.43885  0.28757  0.54458  1.0000
  C   C19       1.0  0.55243  0.82508  0.40914  1.0000
  C   C20       1.0  0.44758  0.17491  0.59087  1.0000
  C   C21       1.0  0.69821  0.94651  0.41531  1.0000
  C   C22       1.0  0.30178  0.05348  0.58468  1.0000
  C   C23       1.0  0.69236  0.06013  0.38084  1.0000
  C   C24       1.0  0.30764  0.93987  0.61916  1.0000
  C   C25       1.0  0.54035  0.04697  0.33286  1.0000
  C   C26       1.0  0.45964  0.95302  0.66714  1.0000
  C   C27       1.0  0.39665  0.92096  0.32372  1.0000
  C   C28       1.0  0.60333  0.07903  0.67628  1.0000
  C   C29       1.0  0.39932  0.81201  0.36335  1.0000
  C   C30       1.0  0.60067  0.18799  0.63665  1.0000
  C   C31       1.0  0.85163  0.19926  0.40179  1.0000
  C   C32       1.0  0.14835  0.80073  0.59821  1.0000
  N   N1        1.0  0.17562  0.44701  0.03886  1.0000
  N   N2        1.0  0.82440  0.55301  0.96114  1.0000
  N   N3        1.0  0.23641  0.90968  0.27774  1.0000
  N   N4        1.0  0.76359  0.09032  0.72227  1.0000
  O   O1        1.0  0.14828  0.44816  0.64880  1.0000
  O   O2        1.0  0.85172  0.55184  0.35120  1.0000
  O   O3        1.0  0.40417  0.61169  0.66884  1.0000
  O   O4        1.0  0.59583  0.38830  0.33116  1.0000
  O   O5        1.0  0.78476  0.01496  0.09739  1.0000
  O   O6        1.0  0.21528  0.98503  0.90259  1.0000
  O   O7        1.0  0.79228  0.86140  0.18488  1.0000
  O   O8        1.0  0.20774  0.13861  0.81512  1.0000
  O   O9        1.0  0.23245  0.46643  0.13730  1.0000
  O   O10       1.0  0.76756  0.53358  0.86271  1.0000
  O   O11       1.0  0.02948  0.35767  0.97856  1.0000
  O   O12       1.0  0.97054  0.64234  0.02145  1.0000
  O   O13       1.0  0.42694  0.61402  0.45734  1.0000
  O   O14       1.0  0.57307  0.38598  0.54266  1.0000
  O   O15       1.0  0.70242  0.72476  0.49077  1.0000
  O   O16       1.0  0.29758  0.27523  0.50921  1.0000
  O   O17       1.0  0.97232  0.16945  0.37845  1.0000
  O   O18       1.0  0.02766  0.83055  0.62154  1.0000
  O   O19       1.0  0.86653  0.34471  0.44660  1.0000
  O   O20       1.0  0.13344  0.65528  0.55340  1.0000
  O   O21       1.0  0.23065  0.97607  0.21632  1.0000
  O   O22       1.0  0.76933  0.02393  0.78370  1.0000
  O   O23       1.0  0.11673  0.83705  0.30369  1.0000
  O   O24       1.0  0.88325  0.16293  0.69632  1.0000
  O   O25       1.0  0.07990  0.45421  0.31306  1.0000
  O   O26       1.0  0.92009  0.54578  0.68694  1.0000
  O   O27       1.0  0.26370  0.29088  0.29711  1.0000
  O   O28       1.0  0.73630  0.70913  0.70289  1.0000
