data_image0
_chemical_formula_structural       Cu4H32C36S8Br4N16
_chemical_formula_sum              "Cu4 H32 C36 S8 Br4 N16"
_cell_length_a       7.45142
_cell_length_b       8.39393
_cell_length_c       19.9783
_cell_angle_alpha    89.9997
_cell_angle_beta     89.9998
_cell_angle_gamma    110.24

_space_group_name_H-M_alt    "P 1"
_space_group_IT_number       1

loop_
  _space_group_symop_operation_xyz
  'x, y, z'

loop_
  _atom_site_type_symbol
  _atom_site_label
  _atom_site_symmetry_multiplicity
  _atom_site_fract_x
  _atom_site_fract_y
  _atom_site_fract_z
  _atom_site_occupancy
  Cu  Cu1       1.0  0.95435  0.41274  0.42789  1.0000
  Cu  Cu2       1.0  0.04563  0.08726  0.92789  1.0000
  Cu  Cu3       1.0  0.04565  0.58726  0.57211  1.0000
  Cu  Cu4       1.0  0.95435  0.91274  0.07213  1.0000
  H   H1        1.0  0.96997  0.80967  0.32776  1.0000
  H   H2        1.0  0.03008  0.69035  0.82775  1.0000
  H   H3        1.0  0.03006  0.19035  0.67224  1.0000
  H   H4        1.0  0.96992  0.30964  0.17225  1.0000
  H   H5        1.0  0.72580  0.80195  0.32889  1.0000
  H   H6        1.0  0.27424  0.69805  0.82888  1.0000
  H   H7        1.0  0.27422  0.19806  0.67112  1.0000
  H   H8        1.0  0.72576  0.30194  0.17113  1.0000
  H   H9        1.0  0.26143  0.82468  0.40160  1.0000
  H   H10       1.0  0.73857  0.67529  0.90161  1.0000
  H   H11       1.0  0.73856  0.17532  0.59840  1.0000
  H   H12       1.0  0.26142  0.32471  0.09840  1.0000
  H   H13       1.0  0.24483  0.08751  0.46026  1.0000
  H   H14       1.0  0.75514  0.41245  0.96026  1.0000
  H   H15       1.0  0.75517  0.91249  0.53974  1.0000
  H   H16       1.0  0.24485  0.58754  0.03974  1.0000
  H   H17       1.0  0.55421  0.33643  0.47065  1.0000
  H   H18       1.0  0.44574  0.16354  0.97065  1.0000
  H   H19       1.0  0.44579  0.66358  0.52935  1.0000
  H   H20       1.0  0.55425  0.83645  0.02936  1.0000
  H   H21       1.0  0.51956  0.96166  0.27406  1.0000
  H   H22       1.0  0.48045  0.53832  0.77405  1.0000
  H   H23       1.0  0.48045  0.03831  0.72593  1.0000
  H   H24       1.0  0.51957  0.46172  0.22595  1.0000
  H   H25       1.0  0.62299  0.01814  0.15183  1.0000
  H   H26       1.0  0.37703  0.48183  0.65182  1.0000
  H   H27       1.0  0.37701  0.98184  0.84817  1.0000
  H   H28       1.0  0.62297  0.51818  0.34818  1.0000
  H   H29       1.0  0.36961  0.02154  0.06908  1.0000
  H   H30       1.0  0.63041  0.47841  0.56908  1.0000
  H   H31       1.0  0.63038  0.97845  0.93092  1.0000
  H   H32       1.0  0.36958  0.52157  0.43093  1.0000
  C   C1        1.0  0.87376  0.87938  0.31649  1.0000
  C   C2        1.0  0.12626  0.62063  0.81648  1.0000
  C   C3        1.0  0.12626  0.12063  0.68351  1.0000
  C   C4        1.0  0.87373  0.37937  0.18352  1.0000
  C   C5        1.0  0.71208  0.06478  0.39477  1.0000
  C   C6        1.0  0.28791  0.43522  0.89477  1.0000
  C   C7        1.0  0.28792  0.93522  0.60523  1.0000
  C   C8        1.0  0.71208  0.56477  0.10523  1.0000
  C   C9        1.0  0.38900  0.93685  0.40891  1.0000
  C   C10       1.0  0.61099  0.56313  0.90891  1.0000
  C   C11       1.0  0.61100  0.06316  0.59109  1.0000
  C   C12       1.0  0.38899  0.43686  0.09109  1.0000
  C   C13       1.0  0.37851  0.08077  0.44095  1.0000
  C   C14       1.0  0.62147  0.41921  0.94095  1.0000
  C   C15       1.0  0.62149  0.91923  0.55905  1.0000
  C   C16       1.0  0.37852  0.58078  0.05904  1.0000
  C   C17       1.0  0.54811  0.21735  0.44712  1.0000
  C   C18       1.0  0.45186  0.28263  0.94712  1.0000
  C   C19       1.0  0.45188  0.78265  0.55288  1.0000
  C   C20       1.0  0.54813  0.71737  0.05288  1.0000
  C   C21       1.0  0.11825  0.95290  0.20752  1.0000
  C   C22       1.0  0.88179  0.54710  0.70752  1.0000
  C   C23       1.0  0.88176  0.04710  0.79247  1.0000
  C   C24       1.0  0.11821  0.45290  0.29248  1.0000
  C   C25       1.0  0.42131  0.96998  0.23483  1.0000
  C   C26       1.0  0.57871  0.53001  0.73483  1.0000
  C   C27       1.0  0.57870  0.03000  0.76516  1.0000
  C   C28       1.0  0.42130  0.47001  0.26517  1.0000
  C   C29       1.0  0.47796  0.99948  0.16829  1.0000
  C   C30       1.0  0.52205  0.50050  0.66829  1.0000
  C   C31       1.0  0.52204  0.00051  0.83170  1.0000
  C   C32       1.0  0.47796  0.49951  0.33171  1.0000
  C   C33       1.0  0.33954  0.00275  0.12247  1.0000
  C   C34       1.0  0.66048  0.49723  0.62247  1.0000
  C   C35       1.0  0.66046  0.99725  0.87753  1.0000
  C   C36       1.0  0.33952  0.50276  0.37753  1.0000
  S   S1        1.0  0.93785  0.06591  0.36927  1.0000
  S   S2        1.0  0.06215  0.43411  0.86927  1.0000
  S   S3        1.0  0.06215  0.93410  0.63073  1.0000
  S   S4        1.0  0.93784  0.56589  0.13074  1.0000
  S   S5        1.0  0.87902  0.91925  0.22732  1.0000
  S   S6        1.0  0.12099  0.58074  0.72731  1.0000
  S   S7        1.0  0.12098  0.08075  0.77268  1.0000
  S   S8        1.0  0.87902  0.41926  0.27269  1.0000
  Br  Br1       1.0  0.86680  0.65521  0.46889  1.0000
  Br  Br2       1.0  0.13322  0.84480  0.96889  1.0000
  Br  Br3       1.0  0.13321  0.34479  0.53111  1.0000
  Br  Br4       1.0  0.86676  0.15519  0.03112  1.0000
  N   N1        1.0  0.55518  0.92821  0.38635  1.0000
  N   N2        1.0  0.44483  0.57178  0.88635  1.0000
  N   N3        1.0  0.44483  0.07180  0.61365  1.0000
  N   N4        1.0  0.55516  0.42820  0.11365  1.0000
  N   N5        1.0  0.71604  0.21283  0.42373  1.0000
  N   N6        1.0  0.28395  0.28716  0.92373  1.0000
  N   N7        1.0  0.28396  0.78716  0.57627  1.0000
  N   N8        1.0  0.71605  0.71284  0.07627  1.0000
  N   N9        1.0  0.15737  0.97547  0.14077  1.0000
  N   N10       1.0  0.84265  0.52452  0.64077  1.0000
  N   N11       1.0  0.84263  0.02452  0.85923  1.0000
  N   N12       1.0  0.15735  0.47548  0.35923  1.0000
  N   N13       1.0  0.24261  0.94964  0.25489  1.0000
  N   N14       1.0  0.75740  0.55037  0.75488  1.0000
  N   N15       1.0  0.75739  0.05035  0.74511  1.0000
  N   N16       1.0  0.24261  0.44965  0.24512  1.0000
