data_image0
_chemical_formula_structural       Cd2H32C32O16
_chemical_formula_sum              "Cd2 H32 C32 O16"
_cell_length_a       4.67438
_cell_length_b       13.8544
_cell_length_c       13.1042
_cell_angle_alpha    105.556
_cell_angle_beta     100.242
_cell_angle_gamma    90.0206

_space_group_name_H-M_alt    "P 1"
_space_group_IT_number       1

loop_
  _space_group_symop_operation_xyz
  'x, y, z'

loop_
  _atom_site_type_symbol
  _atom_site_label
  _atom_site_symmetry_multiplicity
  _atom_site_fract_x
  _atom_site_fract_y
  _atom_site_fract_z
  _atom_site_occupancy
  Cd  Cd1       1.0  0.00269  0.24997  0.00024  1.0000
  Cd  Cd2       1.0  0.99733  0.75004  0.99975  1.0000
  H   H1        1.0  0.47347  0.16377  0.86380  1.0000
  H   H2        1.0  0.60956  0.33622  0.13651  1.0000
  H   H3        1.0  0.52655  0.83624  0.13620  1.0000
  H   H4        1.0  0.39046  0.66378  0.86350  1.0000
  H   H5        1.0  0.54469  0.10588  0.95071  1.0000
  H   H6        1.0  0.59397  0.39405  0.04953  1.0000
  H   H7        1.0  0.45532  0.89413  0.04929  1.0000
  H   H8        1.0  0.40604  0.60595  0.95047  1.0000
  H   H9        1.0  0.79491  0.02298  0.10912  1.0000
  H   H10       1.0  0.68628  0.47678  0.89090  1.0000
  H   H11       1.0  0.20507  0.97702  0.89089  1.0000
  H   H12       1.0  0.31376  0.52322  0.10910  1.0000
  H   H13       1.0  0.15117  0.97864  0.24893  1.0000
  H   H14       1.0  0.90180  0.52125  0.75083  1.0000
  H   H15       1.0  0.84881  0.02136  0.75107  1.0000
  H   H16       1.0  0.09823  0.47875  0.24916  1.0000
  H   H17       1.0  0.88254  0.22305  0.49041  1.0000
  H   H18       1.0  0.39085  0.27695  0.50956  1.0000
  H   H19       1.0  0.11744  0.77695  0.50960  1.0000
  H   H20       1.0  0.60914  0.72305  0.49043  1.0000
  H   H21       1.0  0.53137  0.26942  0.34661  1.0000
  H   H22       1.0  0.18399  0.23057  0.65355  1.0000
  H   H23       1.0  0.46860  0.73058  0.65340  1.0000
  H   H24       1.0  0.81601  0.76944  0.34644  1.0000
  H   H25       1.0  0.53375  0.00114  0.38538  1.0000
  H   H26       1.0  0.14730  0.49858  0.61459  1.0000
  H   H27       1.0  0.46624  0.99886  0.61462  1.0000
  H   H28       1.0  0.85271  0.50142  0.38541  1.0000
  H   H29       1.0  0.27039  0.92515  0.41686  1.0000
  H   H30       1.0  0.85358  0.57492  0.58315  1.0000
  H   H31       1.0  0.72960  0.07486  0.58314  1.0000
  H   H32       1.0  0.14642  0.42508  0.41685  1.0000
  C   C1        1.0  0.41283  0.17326  0.13636  1.0000
  C   C2        1.0  0.27669  0.32649  0.86387  1.0000
  C   C3        1.0  0.58716  0.82675  0.86364  1.0000
  C   C4        1.0  0.72333  0.67351  0.13612  1.0000
  C   C5        1.0  0.63424  0.14757  0.21898  1.0000
  C   C6        1.0  0.41511  0.35224  0.78118  1.0000
  C   C7        1.0  0.36575  0.85244  0.78102  1.0000
  C   C8        1.0  0.58490  0.64775  0.21882  1.0000
  C   C9        1.0  0.81072  0.06609  0.19290  1.0000
  C   C10       1.0  0.61801  0.43365  0.80714  1.0000
  C   C11       1.0  0.18927  0.93392  0.80711  1.0000
  C   C12       1.0  0.38200  0.56635  0.19285  1.0000
  C   C13       1.0  0.01287  0.04087  0.27233  1.0000
  C   C14       1.0  0.74028  0.45894  0.72759  1.0000
  C   C15       1.0  0.98712  0.95913  0.72768  1.0000
  C   C16       1.0  0.25972  0.54106  0.27240  1.0000
  C   C17       1.0  0.03528  0.09758  0.37986  1.0000
  C   C18       1.0  0.65469  0.40233  0.62004  1.0000
  C   C19       1.0  0.96470  0.90241  0.62015  1.0000
  C   C20       1.0  0.34531  0.59767  0.37996  1.0000
  C   C21       1.0  0.86207  0.18025  0.40653  1.0000
  C   C22       1.0  0.45472  0.31968  0.59345  1.0000
  C   C23       1.0  0.13790  0.81974  0.59347  1.0000
  C   C24       1.0  0.54528  0.68032  0.40654  1.0000
  C   C25       1.0  0.66633  0.20550  0.32670  1.0000
  C   C26       1.0  0.33913  0.29444  0.67343  1.0000
  C   C27       1.0  0.33364  0.79450  0.67330  1.0000
  C   C28       1.0  0.66088  0.70556  0.32656  1.0000
  C   C29       1.0  0.40267  0.99633  0.44594  1.0000
  C   C30       1.0  0.95613  0.50360  0.55400  1.0000
  C   C31       1.0  0.59731  0.00367  0.55405  1.0000
  C   C32       1.0  0.04389  0.49640  0.44600  1.0000
  O   O1        1.0  0.31821  0.26320  0.15844  1.0000
  O   O2        1.0  0.16031  0.23652  0.84189  1.0000
  O   O3        1.0  0.68178  0.73680  0.84155  1.0000
  O   O4        1.0  0.83969  0.76348  0.15810  1.0000
  O   O5        1.0  0.31918  0.11026  0.04556  1.0000
  O   O6        1.0  0.27394  0.38946  0.95470  1.0000
  O   O7        1.0  0.68081  0.88975  0.95445  1.0000
  O   O8        1.0  0.72608  0.61054  0.04530  1.0000
  O   O9        1.0  0.21907  0.07955  0.46515  1.0000
  O   O10       1.0  0.75253  0.42059  0.53469  1.0000
  O   O11       1.0  0.78092  0.92045  0.53485  1.0000
  O   O12       1.0  0.24748  0.57941  0.46531  1.0000
  O   O13       1.0  0.63829  0.13342  0.90131  1.0000
  O   O14       1.0  0.73693  0.36668  0.09905  1.0000
  O   O15       1.0  0.36173  0.86659  0.09869  1.0000
  O   O16       1.0  0.26308  0.63332  0.90095  1.0000
