data_image0
_chemical_formula_structural       Fe2H24C8Cl4O8
_chemical_formula_sum              "Fe2 H24 C8 Cl4 O8"
_cell_length_a       6.92836
_cell_length_b       7.85352
_cell_length_c       9.15294
_cell_angle_alpha    90
_cell_angle_beta     89.9993
_cell_angle_gamma    115.147

_space_group_name_H-M_alt    "P 1"
_space_group_IT_number       1

loop_
  _space_group_symop_operation_xyz
  'x, y, z'

loop_
  _atom_site_type_symbol
  _atom_site_label
  _atom_site_symmetry_multiplicity
  _atom_site_fract_x
  _atom_site_fract_y
  _atom_site_fract_z
  _atom_site_occupancy
  Fe  Fe1       1.0  0.00000  1.00000  0.50000  1.0000
  Fe  Fe2       1.0  0.50000  0.50000  1.00000  1.0000
  H   H1        1.0  0.74957  0.64331  0.42347  1.0000
  H   H2        1.0  0.75045  0.85668  0.92348  1.0000
  H   H3        1.0  0.25043  0.35669  0.57653  1.0000
  H   H4        1.0  0.24955  0.14332  0.07652  1.0000
  H   H5        1.0  0.71515  0.65983  0.59293  1.0000
  H   H6        1.0  0.78489  0.84017  0.09294  1.0000
  H   H7        1.0  0.28485  0.34017  0.40707  1.0000
  H   H8        1.0  0.21511  0.15983  0.90706  1.0000
  H   H9        1.0  0.79396  0.24993  0.61870  1.0000
  H   H10       1.0  0.70605  0.25009  0.11871  1.0000
  H   H11       1.0  0.20604  0.75007  0.38130  1.0000
  H   H12       1.0  0.29395  0.74991  0.88129  1.0000
  H   H13       1.0  0.63289  0.27324  0.47307  1.0000
  H   H14       1.0  0.86712  0.22674  0.97309  1.0000
  H   H15       1.0  0.36711  0.72676  0.52693  1.0000
  H   H16       1.0  0.13288  0.77326  0.02691  1.0000
  H   H17       1.0  0.51088  0.03174  0.28741  1.0000
  H   H18       1.0  0.98912  0.46822  0.78741  1.0000
  H   H19       1.0  0.48913  0.96826  0.71259  1.0000
  H   H20       1.0  0.01088  0.53178  0.21259  1.0000
  H   H21       1.0  0.58932  0.84218  0.30347  1.0000
  H   H22       1.0  0.91066  0.65778  0.80346  1.0000
  H   H23       1.0  0.41069  0.15782  0.69653  1.0000
  H   H24       1.0  0.08933  0.34222  0.19654  1.0000
  C   C1        1.0  0.65802  0.17376  0.54696  1.0000
  C   C2        1.0  0.84198  0.32623  0.04697  1.0000
  C   C3        1.0  0.34199  0.82623  0.45304  1.0000
  C   C4        1.0  0.15802  0.67377  0.95303  1.0000
  C   C5        1.0  0.53989  0.93705  0.36420  1.0000
  C   C6        1.0  0.96008  0.56292  0.86419  1.0000
  C   C7        1.0  0.46011  0.06295  0.63580  1.0000
  C   C8        1.0  0.03992  0.43708  0.13581  1.0000
  Cl  Cl1       1.0  0.96153  0.03034  0.76337  1.0000
  Cl  Cl2       1.0  0.53846  0.46966  0.26337  1.0000
  Cl  Cl3       1.0  0.03847  0.96967  0.23663  1.0000
  Cl  Cl4       1.0  0.46154  0.53034  0.73663  1.0000
  O   O1        1.0  0.82348  0.70910  0.51369  1.0000
  O   O2        1.0  0.67654  0.79091  0.01369  1.0000
  O   O3        1.0  0.17652  0.29090  0.48631  1.0000
  O   O4        1.0  0.32346  0.20909  0.98631  1.0000
  O   O5        1.0  0.71494  0.04869  0.45920  1.0000
  O   O6        1.0  0.78503  0.45130  0.95921  1.0000
  O   O7        1.0  0.28506  0.95131  0.54080  1.0000
  O   O8        1.0  0.21496  0.54870  0.04079  1.0000
