data_image0
_chemical_formula_structural       Cd4H20C16N8Cl4O12
_chemical_formula_sum              "Cd4 H20 C16 N8 Cl4 O12"
_cell_length_a       6.92819
_cell_length_b       10.3322
_cell_length_c       10.5361
_cell_angle_alpha    90.0002
_cell_angle_beta     104.988
_cell_angle_gamma    90.0005

_space_group_name_H-M_alt    "P 1"
_space_group_IT_number       1

loop_
  _space_group_symop_operation_xyz
  'x, y, z'

loop_
  _atom_site_type_symbol
  _atom_site_label
  _atom_site_symmetry_multiplicity
  _atom_site_fract_x
  _atom_site_fract_y
  _atom_site_fract_z
  _atom_site_occupancy
  Cd  Cd1       1.0  0.19104  0.13740  0.99988  1.0000
  Cd  Cd2       1.0  0.30897  0.63739  0.50012  1.0000
  Cd  Cd3       1.0  0.80897  0.86261  0.00012  1.0000
  Cd  Cd4       1.0  0.69103  0.36260  0.49988  1.0000
  H   H1        1.0  0.15800  0.63794  0.85826  1.0000
  H   H2        1.0  0.34201  0.13794  0.64174  1.0000
  H   H3        1.0  0.84201  0.36207  0.14174  1.0000
  H   H4        1.0  0.65798  0.86206  0.35826  1.0000
  H   H5        1.0  0.39474  0.64041  0.11405  1.0000
  H   H6        1.0  0.10528  0.14040  0.38595  1.0000
  H   H7        1.0  0.60526  0.35959  0.88595  1.0000
  H   H8        1.0  0.89472  0.85959  0.61405  1.0000
  H   H9        1.0  0.59555  0.14744  0.98077  1.0000
  H   H10       1.0  0.90445  0.64744  0.51923  1.0000
  H   H11       1.0  0.40445  0.85256  0.01923  1.0000
  H   H12       1.0  0.09555  0.35256  0.48077  1.0000
  H   H13       1.0  0.40134  0.40006  0.19064  1.0000
  H   H14       1.0  0.09867  0.90006  0.30936  1.0000
  H   H15       1.0  0.59867  0.59994  0.80936  1.0000
  H   H16       1.0  0.90133  0.09994  0.69064  1.0000
  H   H17       1.0  0.49082  0.06740  0.85817  1.0000
  H   H18       1.0  0.00918  0.56740  0.64183  1.0000
  H   H19       1.0  0.50918  0.93260  0.14183  1.0000
  H   H20       1.0  0.99082  0.43260  0.35817  1.0000
  C   C1        1.0  0.01342  0.35745  0.78900  1.0000
  C   C2        1.0  0.48659  0.85746  0.71101  1.0000
  C   C3        1.0  0.98658  0.64255  0.21100  1.0000
  C   C4        1.0  0.51341  0.14254  0.28899  1.0000
  C   C5        1.0  0.14312  0.42619  0.90320  1.0000
  C   C6        1.0  0.35688  0.92618  0.59680  1.0000
  C   C7        1.0  0.85688  0.57381  0.09680  1.0000
  C   C8        1.0  0.64311  0.07382  0.40321  1.0000
  C   C9        1.0  0.19866  0.55719  0.92550  1.0000
  C   C10       1.0  0.30135  0.05718  0.57449  1.0000
  C   C11       1.0  0.80134  0.44281  0.07450  1.0000
  C   C12       1.0  0.69864  0.94281  0.42550  1.0000
  C   C13       1.0  0.31628  0.56154  0.05431  1.0000
  C   C14       1.0  0.18372  0.06154  0.44568  1.0000
  C   C15       1.0  0.68372  0.43846  0.94569  1.0000
  C   C16       1.0  0.81628  0.93846  0.55431  1.0000
  N   N1        1.0  0.22296  0.35652  0.01228  1.0000
  N   N2        1.0  0.27705  0.85652  0.48772  1.0000
  N   N3        1.0  0.77704  0.64348  0.98772  1.0000
  N   N4        1.0  0.72295  0.14348  0.51229  1.0000
  N   N5        1.0  0.32569  0.43915  0.10154  1.0000
  N   N6        1.0  0.17432  0.93915  0.39846  1.0000
  N   N7        1.0  0.67432  0.56085  0.89846  1.0000
  N   N8        1.0  0.82568  0.06085  0.60154  1.0000
  Cl  Cl1       1.0  0.10519  0.90895  0.89077  1.0000
  Cl  Cl2       1.0  0.39482  0.40895  0.60923  1.0000
  Cl  Cl3       1.0  0.89481  0.09105  0.10923  1.0000
  Cl  Cl4       1.0  0.60518  0.59105  0.39077  1.0000
  O   O1        1.0  0.47214  0.14640  0.90866  1.0000
  O   O2        1.0  0.02786  0.64640  0.59134  1.0000
  O   O3        1.0  0.52786  0.85360  0.09134  1.0000
  O   O4        1.0  0.97215  0.35360  0.40866  1.0000
  O   O5        1.0  0.99126  0.23595  0.79821  1.0000
  O   O6        1.0  0.50876  0.73596  0.70179  1.0000
  O   O7        1.0  0.00875  0.76405  0.20178  1.0000
  O   O8        1.0  0.49125  0.26405  0.29821  1.0000
  O   O9        1.0  0.92888  0.42603  0.68885  1.0000
  O   O10       1.0  0.57113  0.92604  0.81114  1.0000
  O   O11       1.0  0.07112  0.57397  0.31114  1.0000
  O   O12       1.0  0.42888  0.07396  0.18886  1.0000
