data_image0
_chemical_formula_structural       La2H20C18O22F24
_chemical_formula_sum              "La2 H20 C18 O22 F24"
_cell_length_a       9.71919
_cell_length_b       10.4854
_cell_length_c       10.8062
_cell_angle_alpha    84.5464
_cell_angle_beta     87.9397
_cell_angle_gamma    69.7274

_space_group_name_H-M_alt    "P 1"
_space_group_IT_number       1

loop_
  _space_group_symop_operation_xyz
  'x, y, z'

loop_
  _atom_site_type_symbol
  _atom_site_label
  _atom_site_symmetry_multiplicity
  _atom_site_fract_x
  _atom_site_fract_y
  _atom_site_fract_z
  _atom_site_occupancy
  La  La1       1.0  0.38818  0.27881  0.47029  1.0000
  La  La2       1.0  0.61183  0.72119  0.52972  1.0000
  H   H1        1.0  0.42985  0.18711  0.74885  1.0000
  H   H2        1.0  0.57015  0.81289  0.25115  1.0000
  H   H3        1.0  0.26965  0.18127  0.74379  1.0000
  H   H4        1.0  0.73035  0.81873  0.25621  1.0000
  H   H5        1.0  0.61102  0.15786  0.26591  1.0000
  H   H6        1.0  0.38898  0.84214  0.73409  1.0000
  H   H7        1.0  0.56859  0.02610  0.30319  1.0000
  H   H8        1.0  0.43140  0.97390  0.69682  1.0000
  H   H9        1.0  0.06491  0.37024  0.61197  1.0000
  H   H10       1.0  0.93509  0.62976  0.38803  1.0000
  H   H11       1.0  0.05413  0.34873  0.47034  1.0000
  H   H12       1.0  0.94587  0.65127  0.52966  1.0000
  H   H13       1.0  0.35811  0.58238  0.40194  1.0000
  H   H14       1.0  0.64189  0.41763  0.59807  1.0000
  H   H15       1.0  0.20261  0.58285  0.36162  1.0000
  H   H16       1.0  0.79739  0.41715  0.63838  1.0000
  H   H17       1.0  0.16765  0.44086  0.24686  1.0000
  H   H18       1.0  0.83235  0.55914  0.75314  1.0000
  H   H19       1.0  0.24342  0.29102  0.20424  1.0000
  H   H20       1.0  0.75658  0.70898  0.79575  1.0000
  C   C1        1.0  0.39264  0.53127  0.67312  1.0000
  C   C2        1.0  0.60735  0.46874  0.32687  1.0000
  C   C3        1.0  0.25429  0.55082  0.75778  1.0000
  C   C4        1.0  0.74571  0.44919  0.24222  1.0000
  C   C5        1.0  0.25073  0.63511  0.87058  1.0000
  C   C6        1.0  0.74927  0.36490  0.12942  1.0000
  C   C7        1.0  0.13217  0.63346  0.97246  1.0000
  C   C8        1.0  0.86783  0.36655  0.02754  1.0000
  C   C9        1.0  0.11573  0.72709  0.08003  1.0000
  C   C10       1.0  0.88428  0.27291  0.91997  1.0000
  C   C11       1.0  0.99897  0.71286  0.18025  1.0000
  C   C12       1.0  0.00104  0.28714  0.81975  1.0000
  C   C13       1.0  0.28862  0.97764  0.42181  1.0000
  C   C14       1.0  0.71138  0.02235  0.57818  1.0000
  C   C15       1.0  0.13821  0.00802  0.35670  1.0000
  C   C16       1.0  0.86179  0.99198  0.64330  1.0000
  C   C17       1.0  0.01992  0.96767  0.43690  1.0000
  C   C18       1.0  0.98008  0.03233  0.56311  1.0000
  O   O1        1.0  0.45405  0.41398  0.63579  1.0000
  O   O2        1.0  0.54594  0.58603  0.36421  1.0000
  O   O3        1.0  0.42674  0.63582  0.64937  1.0000
  O   O4        1.0  0.57325  0.36419  0.35063  1.0000
  O   O5        1.0  0.87400  0.79976  0.16827  1.0000
  O   O6        1.0  0.12600  0.20024  0.83174  1.0000
  O   O7        1.0  0.04563  0.61360  0.26436  1.0000
  O   O8        1.0  0.95438  0.38639  0.73564  1.0000
  O   O9        1.0  0.31577  0.07833  0.45385  1.0000
  O   O10       1.0  0.68422  0.92167  0.54614  1.0000
  O   O11       1.0  0.36736  0.85357  0.43358  1.0000
  O   O12       1.0  0.63264  0.14643  0.56642  1.0000
  O   O13       1.0  0.36732  0.15761  0.69820  1.0000
  O   O14       1.0  0.63268  0.84239  0.30180  1.0000
  O   O15       1.0  0.53153  0.12744  0.29810  1.0000
  O   O16       1.0  0.46847  0.87257  0.70190  1.0000
  O   O17       1.0  0.12054  0.35831  0.53119  1.0000
  O   O18       1.0  0.87946  0.64169  0.46880  1.0000
  O   O19       1.0  0.28175  0.54168  0.42317  1.0000
  O   O20       1.0  0.71825  0.45832  0.57683  1.0000
  O   O21       1.0  0.23894  0.34880  0.27037  1.0000
  O   O22       1.0  0.76106  0.65119  0.72963  1.0000
  F   F1        1.0  0.24828  0.42621  0.80345  1.0000
  F   F2        1.0  0.75173  0.57378  0.19656  1.0000
  F   F3        1.0  0.13195  0.61537  0.68573  1.0000
  F   F4        1.0  0.86804  0.38462  0.31427  1.0000
  F   F5        1.0  0.38657  0.58161  0.92432  1.0000
  F   F6        1.0  0.61343  0.41840  0.07567  1.0000
  F   F7        1.0  0.22684  0.76827  0.82785  1.0000
  F   F8        1.0  0.77316  0.23173  0.17215  1.0000
  F   F9        1.0  0.16564  0.50205  0.02519  1.0000
  F   F10       1.0  0.83437  0.49795  0.97481  1.0000
  F   F11       1.0  0.99883  0.67126  0.91493  1.0000
  F   F12       1.0  0.00117  0.32874  0.08507  1.0000
  F   F13       1.0  0.25121  0.69044  0.13573  1.0000
  F   F14       1.0  0.74881  0.30955  0.86426  1.0000
  F   F15       1.0  0.07746  0.85898  0.03087  1.0000
  F   F16       1.0  0.92255  0.14102  0.96913  1.0000
  F   F17       1.0  0.07902  0.14353  0.31661  1.0000
  F   F18       1.0  0.92097  0.85647  0.68339  1.0000
  F   F19       1.0  0.16095  0.93631  0.25339  1.0000
  F   F20       1.0  0.83904  0.06368  0.74662  1.0000
  F   F21       1.0  0.89402  0.00567  0.36778  1.0000
  F   F22       1.0  0.10598  0.99433  0.63222  1.0000
  F   F23       1.0  0.06969  0.82873  0.45997  1.0000
  F   F24       1.0  0.93032  0.17126  0.54003  1.0000
