data_image0
_chemical_formula_structural       Nd2H20C18O22F24
_chemical_formula_sum              "Nd2 H20 C18 O22 F24"
_cell_length_a       9.65369
_cell_length_b       10.3309
_cell_length_c       10.8886
_cell_angle_alpha    83.7619
_cell_angle_beta     86.8724
_cell_angle_gamma    69.5677

_space_group_name_H-M_alt    "P 1"
_space_group_IT_number       1

loop_
  _space_group_symop_operation_xyz
  'x, y, z'

loop_
  _atom_site_type_symbol
  _atom_site_label
  _atom_site_symmetry_multiplicity
  _atom_site_fract_x
  _atom_site_fract_y
  _atom_site_fract_z
  _atom_site_occupancy
  Nd  Nd1       1.0  0.38799  0.28148  0.46915  1.0000
  Nd  Nd2       1.0  0.61201  0.71852  0.53085  1.0000
  H   H1        1.0  0.42584  0.19467  0.73998  1.0000
  H   H2        1.0  0.57416  0.80534  0.26002  1.0000
  H   H3        1.0  0.26908  0.17879  0.73677  1.0000
  H   H4        1.0  0.73091  0.82121  0.26323  1.0000
  H   H5        1.0  0.60744  0.16194  0.26600  1.0000
  H   H6        1.0  0.39256  0.83806  0.73400  1.0000
  H   H7        1.0  0.56287  0.02940  0.30656  1.0000
  H   H8        1.0  0.43713  0.97060  0.69344  1.0000
  H   H9        1.0  0.06678  0.36937  0.60982  1.0000
  H   H10       1.0  0.93322  0.63062  0.39018  1.0000
  H   H11       1.0  0.05971  0.34570  0.46972  1.0000
  H   H12       1.0  0.94029  0.65430  0.53028  1.0000
  H   H13       1.0  0.35779  0.58700  0.40647  1.0000
  H   H14       1.0  0.64221  0.41300  0.59353  1.0000
  H   H15       1.0  0.20298  0.58570  0.36635  1.0000
  H   H16       1.0  0.79703  0.41430  0.63364  1.0000
  H   H17       1.0  0.16981  0.44426  0.25250  1.0000
  H   H18       1.0  0.83020  0.55574  0.74750  1.0000
  H   H19       1.0  0.25752  0.29365  0.20921  1.0000
  H   H20       1.0  0.74248  0.70634  0.79079  1.0000
  C   C1        1.0  0.39251  0.52776  0.67499  1.0000
  C   C2        1.0  0.60751  0.47226  0.32501  1.0000
  C   C3        1.0  0.25608  0.54582  0.76468  1.0000
  C   C4        1.0  0.74392  0.45417  0.23531  1.0000
  C   C5        1.0  0.25111  0.63579  0.87284  1.0000
  C   C6        1.0  0.74888  0.36422  0.12715  1.0000
  C   C7        1.0  0.13250  0.63600  0.97718  1.0000
  C   C8        1.0  0.86749  0.36401  0.02284  1.0000
  C   C9        1.0  0.12046  0.72937  0.08366  1.0000
  C   C10       1.0  0.87954  0.27062  0.91637  1.0000
  C   C11       1.0  0.00075  0.71798  0.18440  1.0000
  C   C12       1.0  0.99927  0.28202  0.81557  1.0000
  C   C13       1.0  0.29200  0.97703  0.42738  1.0000
  C   C14       1.0  0.70800  0.02297  0.57262  1.0000
  C   C15       1.0  0.14406  0.00674  0.35958  1.0000
  C   C16       1.0  0.85594  0.99327  0.64042  1.0000
  C   C17       1.0  0.02193  0.96677  0.43785  1.0000
  C   C18       1.0  0.97807  0.03323  0.56216  1.0000
  O   O1        1.0  0.45018  0.41032  0.63389  1.0000
  O   O2        1.0  0.54981  0.58967  0.36611  1.0000
  O   O3        1.0  0.42896  0.63296  0.65159  1.0000
  O   O4        1.0  0.57103  0.36705  0.34840  1.0000
  O   O5        1.0  0.87574  0.80800  0.17358  1.0000
  O   O6        1.0  0.12425  0.19200  0.82644  1.0000
  O   O7        1.0  0.04580  0.61633  0.26818  1.0000
  O   O8        1.0  0.95420  0.38366  0.73183  1.0000
  O   O9        1.0  0.31839  0.07979  0.45691  1.0000
  O   O10       1.0  0.68159  0.92023  0.54309  1.0000
  O   O11       1.0  0.36970  0.85052  0.44348  1.0000
  O   O12       1.0  0.63031  0.14948  0.55652  1.0000
  O   O13       1.0  0.36774  0.15905  0.69111  1.0000
  O   O14       1.0  0.63225  0.84095  0.30889  1.0000
  O   O15       1.0  0.52582  0.13246  0.29825  1.0000
  O   O16       1.0  0.47419  0.86754  0.70174  1.0000
  O   O17       1.0  0.12385  0.35910  0.52928  1.0000
  O   O18       1.0  0.87615  0.64090  0.47072  1.0000
  O   O19       1.0  0.28207  0.54379  0.42720  1.0000
  O   O20       1.0  0.71793  0.45621  0.57280  1.0000
  O   O21       1.0  0.24191  0.35094  0.27713  1.0000
  O   O22       1.0  0.75808  0.64906  0.72286  1.0000
  F   F1        1.0  0.25639  0.41809  0.81547  1.0000
  F   F2        1.0  0.74362  0.58190  0.18453  1.0000
  F   F3        1.0  0.13015  0.60597  0.69639  1.0000
  F   F4        1.0  0.86983  0.39404  0.30361  1.0000
  F   F5        1.0  0.38841  0.58510  0.92407  1.0000
  F   F6        1.0  0.61159  0.41488  0.07593  1.0000
  F   F7        1.0  0.22382  0.77075  0.82559  1.0000
  F   F8        1.0  0.77619  0.22925  0.17440  1.0000
  F   F9        1.0  0.16405  0.50241  0.03058  1.0000
  F   F10       1.0  0.83596  0.49758  0.96943  1.0000
  F   F11       1.0  0.99719  0.67777  0.92304  1.0000
  F   F12       1.0  0.00281  0.32222  0.07694  1.0000
  F   F13       1.0  0.25744  0.68662  0.13769  1.0000
  F   F14       1.0  0.74257  0.31338  0.86231  1.0000
  F   F15       1.0  0.08763  0.86324  0.03484  1.0000
  F   F16       1.0  0.91238  0.13674  0.96515  1.0000
  F   F17       1.0  0.08537  0.14392  0.31671  1.0000
  F   F18       1.0  0.91460  0.85609  0.68329  1.0000
  F   F19       1.0  0.17275  0.93182  0.25849  1.0000
  F   F20       1.0  0.82725  0.06818  0.74151  1.0000
  F   F21       1.0  0.89750  0.00609  0.36771  1.0000
  F   F22       1.0  0.10251  0.99390  0.63230  1.0000
  F   F23       1.0  0.07034  0.82553  0.46239  1.0000
  F   F24       1.0  0.92966  0.17447  0.53761  1.0000
