data_image0
_chemical_formula_structural       Cu2H40C24N2O8
_chemical_formula_sum              "Cu2 H40 C24 N2 O8"
_cell_length_a       8.38236
_cell_length_b       8.2318
_cell_length_c       11.1391
_cell_angle_alpha    72.6928
_cell_angle_beta     84.9632
_cell_angle_gamma    72.1754

_space_group_name_H-M_alt    "P 1"
_space_group_IT_number       1

loop_
  _space_group_symop_operation_xyz
  'x, y, z'

loop_
  _atom_site_type_symbol
  _atom_site_label
  _atom_site_symmetry_multiplicity
  _atom_site_fract_x
  _atom_site_fract_y
  _atom_site_fract_z
  _atom_site_occupancy
  Cu  Cu1       1.0  0.49161  0.61462  0.86203  1.0000
  Cu  Cu2       1.0  0.50841  0.38536  0.13799  1.0000
  H   H1        1.0  0.74834  0.30072  0.81086  1.0000
  H   H2        1.0  0.25166  0.69929  0.18914  1.0000
  H   H3        1.0  0.88718  0.42843  0.97073  1.0000
  H   H4        1.0  0.11285  0.57159  0.02926  1.0000
  H   H5        1.0  0.83623  0.54666  0.08517  1.0000
  H   H6        1.0  0.16379  0.45335  0.91483  1.0000
  H   H7        1.0  0.69561  0.82393  0.93368  1.0000
  H   H8        1.0  0.30438  0.17608  0.06632  1.0000
  H   H9        1.0  0.89638  0.74685  0.86810  1.0000
  H   H10       1.0  0.10361  0.25318  0.13190  1.0000
  H   H11       1.0  0.61038  0.59438  0.60050  1.0000
  H   H12       1.0  0.38963  0.40563  0.39950  1.0000
  H   H13       1.0  0.81186  0.44074  0.59427  1.0000
  H   H14       1.0  0.18815  0.55927  0.40572  1.0000
  H   H15       1.0  0.90418  0.50618  0.77730  1.0000
  H   H16       1.0  0.09583  0.49384  0.22270  1.0000
  H   H17       1.0  0.86567  0.68621  0.63883  1.0000
  H   H18       1.0  0.13432  0.31380  0.36117  1.0000
  H   H19       1.0  0.55951  0.88441  0.62093  1.0000
  H   H20       1.0  0.44048  0.11558  0.37908  1.0000
  H   H21       1.0  0.72320  0.95443  0.66055  1.0000
  H   H22       1.0  0.27678  0.04557  0.33944  1.0000
  H   H23       1.0  0.55104  0.08269  0.81482  1.0000
  H   H24       1.0  0.44895  0.91732  0.18517  1.0000
  H   H25       1.0  0.40936  0.95723  0.82431  1.0000
  H   H26       1.0  0.59062  0.04278  0.17569  1.0000
  H   H27       1.0  0.46022  0.25081  0.59326  1.0000
  H   H28       1.0  0.53977  0.74919  0.40673  1.0000
  H   H29       1.0  0.31806  0.12673  0.60349  1.0000
  H   H30       1.0  0.68193  0.87328  0.39651  1.0000
  H   H31       1.0  0.17339  0.24359  0.78496  1.0000
  H   H32       1.0  0.82660  0.75643  0.21503  1.0000
  H   H33       1.0  0.16267  0.41614  0.64153  1.0000
  H   H34       1.0  0.83732  0.58386  0.35846  1.0000
  H   H35       1.0  0.30850  0.38208  0.75909  1.0000
  H   H36       1.0  0.69149  0.61794  0.24090  1.0000
  H   H37       1.0  0.23019  0.71820  0.52005  1.0000
  H   H38       1.0  0.76982  0.28178  0.47996  1.0000
  H   H39       1.0  0.94588  0.13341  0.67766  1.0000
  H   H40       1.0  0.05412  0.86657  0.32235  1.0000
  C   C1        1.0  0.79351  0.54065  0.99629  1.0000
  C   C2        1.0  0.20651  0.45936  0.00371  1.0000
  C   C3        1.0  0.77619  0.71762  0.89618  1.0000
  C   C4        1.0  0.22381  0.28240  0.10382  1.0000
  C   C5        1.0  0.72077  0.50418  0.65664  1.0000
  C   C6        1.0  0.27924  0.49582  0.34336  1.0000
  C   C7        1.0  0.80412  0.60396  0.71343  1.0000
  C   C8        1.0  0.19588  0.39605  0.28656  1.0000
  C   C9        1.0  0.61856  0.90010  0.69946  1.0000
  C   C10       1.0  0.38142  0.09990  0.30054  1.0000
  C   C11       1.0  0.48962  0.02797  0.75954  1.0000
  C   C12       1.0  0.51036  0.97204  0.24045  1.0000
  C   C13       1.0  0.37966  0.18165  0.65879  1.0000
  C   C14       1.0  0.62033  0.81836  0.34120  1.0000
  C   C15       1.0  0.24843  0.31362  0.71425  1.0000
  C   C16       1.0  0.75156  0.68639  0.28574  1.0000
  C   C17       1.0  0.19942  0.83290  0.72999  1.0000
  C   C18       1.0  0.80058  0.16708  0.27003  1.0000
  C   C19       1.0  0.09769  0.91768  0.61033  1.0000
  C   C20       1.0  0.90233  0.08230  0.38969  1.0000
  C   C21       1.0  0.12818  0.84095  0.51066  1.0000
  C   C22       1.0  0.87183  0.15903  0.48935  1.0000
  C   C23       1.0  0.96876  0.07731  0.59843  1.0000
  C   C24       1.0  0.03126  0.92267  0.40158  1.0000
  N   N1        1.0  0.68773  0.71813  0.78484  1.0000
  N   N2        1.0  0.31227  0.28187  0.21517  1.0000
  O   O1        1.0  0.63343  0.51513  0.00970  1.0000
  O   O2        1.0  0.36659  0.48486  0.99030  1.0000
  O   O3        1.0  0.65914  0.37539  0.75026  1.0000
  O   O4        1.0  0.34087  0.62462  0.24973  1.0000
  O   O5        1.0  0.34157  0.71577  0.71974  1.0000
  O   O6        1.0  0.65844  0.28420  0.28027  1.0000
  O   O7        1.0  0.14581  0.87896  0.82660  1.0000
  O   O8        1.0  0.85420  0.12103  0.17341  1.0000
