data_image0
_chemical_formula_structural       Cu4Mo2H32C40N8O8
_chemical_formula_sum              "Cu4 Mo2 H32 C40 N8 O8"
_cell_length_a       9.93389
_cell_length_b       9.93376
_cell_length_c       14.3052
_cell_angle_alpha    98.8396
_cell_angle_beta     98.8398
_cell_angle_gamma    116.37

_space_group_name_H-M_alt    "P 1"
_space_group_IT_number       1

loop_
  _space_group_symop_operation_xyz
  'x, y, z'

loop_
  _atom_site_type_symbol
  _atom_site_label
  _atom_site_symmetry_multiplicity
  _atom_site_fract_x
  _atom_site_fract_y
  _atom_site_fract_z
  _atom_site_occupancy
  Cu  Cu1       1.0  0.85536  0.94014  0.81316  1.0000
  Cu  Cu2       1.0  0.94014  0.85537  0.31316  1.0000
  Cu  Cu3       1.0  0.14464  0.05986  0.18684  1.0000
  Cu  Cu4       1.0  0.05986  0.14463  0.68684  1.0000
  Mo  Mo1       1.0  0.77254  0.22745  0.75000  1.0000
  Mo  Mo2       1.0  0.22746  0.77255  0.24999  1.0000
  H   H1        1.0  0.17862  0.42894  0.06790  1.0000
  H   H2        1.0  0.42894  0.17863  0.56790  1.0000
  H   H3        1.0  0.82138  0.57106  0.93210  1.0000
  H   H4        1.0  0.57106  0.82138  0.43210  1.0000
  H   H5        1.0  0.94199  0.21851  0.94903  1.0000
  H   H6        1.0  0.21851  0.94199  0.44905  1.0000
  H   H7        1.0  0.05801  0.78149  0.05097  1.0000
  H   H8        1.0  0.78149  0.05801  0.55095  1.0000
  H   H9        1.0  0.60905  0.32790  0.09563  1.0000
  H   H10       1.0  0.32790  0.60905  0.59563  1.0000
  H   H11       1.0  0.39095  0.67209  0.90438  1.0000
  H   H12       1.0  0.67211  0.39095  0.40438  1.0000
  H   H13       1.0  0.15999  0.95641  0.88659  1.0000
  H   H14       1.0  0.95641  0.15999  0.38659  1.0000
  H   H15       1.0  0.84001  0.04359  0.11341  1.0000
  H   H16       1.0  0.04357  0.84002  0.61340  1.0000
  H   H17       1.0  0.85035  0.55458  0.20239  1.0000
  H   H18       1.0  0.55456  0.85036  0.70239  1.0000
  H   H19       1.0  0.14967  0.44541  0.79761  1.0000
  H   H20       1.0  0.44543  0.14966  0.29761  1.0000
  H   H21       1.0  0.62495  0.81621  0.24220  1.0000
  H   H22       1.0  0.81622  0.62497  0.74219  1.0000
  H   H23       1.0  0.37506  0.18378  0.75780  1.0000
  H   H24       1.0  0.18376  0.37503  0.25780  1.0000
  H   H25       1.0  0.37748  0.60592  0.13804  1.0000
  H   H26       1.0  0.60592  0.37749  0.63803  1.0000
  H   H27       1.0  0.62253  0.39408  0.86196  1.0000
  H   H28       1.0  0.39406  0.62250  0.36197  1.0000
  H   H29       1.0  0.40815  0.15541  0.99911  1.0000
  H   H30       1.0  0.15541  0.40814  0.49911  1.0000
  H   H31       1.0  0.59185  0.84459  0.00089  1.0000
  H   H32       1.0  0.84458  0.59185  0.50089  1.0000
  C   C1        1.0  0.18335  0.32808  0.02854  1.0000
  C   C2        1.0  0.32806  0.18335  0.52855  1.0000
  C   C3        1.0  0.81665  0.67193  0.97146  1.0000
  C   C4        1.0  0.67195  0.81665  0.47145  1.0000
  C   C5        1.0  0.46846  0.44483  0.10526  1.0000
  C   C6        1.0  0.44484  0.46844  0.60526  1.0000
  C   C7        1.0  0.53155  0.55516  0.89474  1.0000
  C   C8        1.0  0.55516  0.53155  0.39474  1.0000
  C   C9        1.0  0.04864  0.21005  0.96348  1.0000
  C   C10       1.0  0.21004  0.04864  0.46349  1.0000
  C   C11       1.0  0.95136  0.78996  0.03652  1.0000
  C   C12       1.0  0.78996  0.95137  0.53652  1.0000
  C   C13       1.0  0.60560  0.43358  0.12559  1.0000
  C   C14       1.0  0.43358  0.60559  0.62558  1.0000
  C   C15       1.0  0.39441  0.56641  0.87441  1.0000
  C   C16       1.0  0.56643  0.39442  0.37442  1.0000
  C   C17       1.0  0.17011  0.06369  0.92761  1.0000
  C   C18       1.0  0.06369  0.17011  0.42762  1.0000
  C   C19       1.0  0.82989  0.93631  0.07238  1.0000
  C   C20       1.0  0.93630  0.82989  0.57238  1.0000
  C   C21       1.0  0.74169  0.55889  0.18490  1.0000
  C   C22       1.0  0.55889  0.74169  0.68489  1.0000
  C   C23       1.0  0.25833  0.44109  0.81511  1.0000
  C   C24       1.0  0.44112  0.25832  0.31511  1.0000
  C   C25       1.0  0.61825  0.70747  0.20670  1.0000
  C   C26       1.0  0.70747  0.61826  0.70670  1.0000
  C   C27       1.0  0.38176  0.29252  0.79329  1.0000
  C   C28       1.0  0.29252  0.38174  0.29330  1.0000
  C   C29       1.0  0.47881  0.58767  0.14741  1.0000
  C   C30       1.0  0.58766  0.47880  0.64742  1.0000
  C   C31       1.0  0.52120  0.41233  0.85259  1.0000
  C   C32       1.0  0.41233  0.52119  0.35259  1.0000
  C   C33       1.0  0.30912  0.17673  0.99144  1.0000
  C   C34       1.0  0.17672  0.30913  0.49143  1.0000
  C   C35       1.0  0.69087  0.82327  0.00856  1.0000
  C   C36       1.0  0.82326  0.69086  0.50857  1.0000
  C   C37       1.0  0.32054  0.31587  0.04219  1.0000
  C   C38       1.0  0.31588  0.32054  0.54218  1.0000
  C   C39       1.0  0.67947  0.68412  0.95781  1.0000
  C   C40       1.0  0.68412  0.67946  0.45782  1.0000
  N   N1        1.0  0.04106  0.08000  0.91101  1.0000
  N   N2        1.0  0.07997  0.04105  0.41102  1.0000
  N   N3        1.0  0.95894  0.92001  0.08899  1.0000
  N   N4        1.0  0.92002  0.95896  0.58897  1.0000
  N   N5        1.0  0.74952  0.69536  0.22607  1.0000
  N   N6        1.0  0.69534  0.74953  0.72607  1.0000
  N   N7        1.0  0.25049  0.30463  0.77393  1.0000
  N   N8        1.0  0.30466  0.25048  0.27393  1.0000
  O   O1        1.0  0.74152  0.07377  0.81046  1.0000
  O   O2        1.0  0.07378  0.74153  0.31045  1.0000
  O   O3        1.0  0.25848  0.92624  0.18953  1.0000
  O   O4        1.0  0.92623  0.25847  0.68955  1.0000
  O   O5        1.0  0.82603  0.40108  0.83686  1.0000
  O   O6        1.0  0.40108  0.82602  0.33684  1.0000
  O   O7        1.0  0.17396  0.59891  0.16315  1.0000
  O   O8        1.0  0.59892  0.17399  0.66315  1.0000
