data_image0
_chemical_formula_structural       Zn2H28C28N8O16
_chemical_formula_sum              "Zn2 H28 C28 N8 O16"
_cell_length_a       7.4133
_cell_length_b       9.38449
_cell_length_c       12.6704
_cell_angle_alpha    105.52
_cell_angle_beta     90.0028
_cell_angle_gamma    113.249

_space_group_name_H-M_alt    "P 1"
_space_group_IT_number       1

loop_
  _space_group_symop_operation_xyz
  'x, y, z'

loop_
  _atom_site_type_symbol
  _atom_site_label
  _atom_site_symmetry_multiplicity
  _atom_site_fract_x
  _atom_site_fract_y
  _atom_site_fract_z
  _atom_site_occupancy
  Zn  Zn1       1.0  0.85419  0.99999  0.74988  1.0000
  Zn  Zn2       1.0  0.14581  0.00001  0.25013  1.0000
  H   H1        1.0  0.21299  0.86649  0.65129  1.0000
  H   H2        1.0  0.34685  0.13365  0.84872  1.0000
  H   H3        1.0  0.78701  0.13351  0.34871  1.0000
  H   H4        1.0  0.65315  0.86635  0.15128  1.0000
  H   H5        1.0  0.24440  0.85623  0.50989  1.0000
  H   H6        1.0  0.38859  0.14391  0.99011  1.0000
  H   H7        1.0  0.75560  0.14377  0.49011  1.0000
  H   H8        1.0  0.61141  0.85609  0.00989  1.0000
  H   H9        1.0  0.38251  0.67575  0.71935  1.0000
  H   H10       1.0  0.70702  0.32424  0.78062  1.0000
  H   H11       1.0  0.61749  0.32425  0.28064  1.0000
  H   H12       1.0  0.29298  0.67576  0.21938  1.0000
  H   H13       1.0  0.17389  0.58768  0.38678  1.0000
  H   H14       1.0  0.58651  0.41262  0.11320  1.0000
  H   H15       1.0  0.82611  0.41232  0.61322  1.0000
  H   H16       1.0  0.41349  0.58738  0.88680  1.0000
  H   H17       1.0  0.20606  0.30821  0.41067  1.0000
  H   H18       1.0  0.89815  0.69196  0.08923  1.0000
  H   H19       1.0  0.79393  0.69179  0.58933  1.0000
  H   H20       1.0  0.10185  0.30804  0.91077  1.0000
  H   H21       1.0  0.44063  0.40144  0.69379  1.0000
  H   H22       1.0  0.03930  0.59845  0.80605  1.0000
  H   H23       1.0  0.55937  0.59856  0.30621  1.0000
  H   H24       1.0  0.96070  0.40155  0.19395  1.0000
  H   H25       1.0  0.32984  0.24327  0.56947  1.0000
  H   H26       1.0  0.08658  0.75678  0.93032  1.0000
  H   H27       1.0  0.67016  0.75672  0.43053  1.0000
  H   H28       1.0  0.91342  0.24322  0.06968  1.0000
  C   C1        1.0  0.51566  0.96447  0.62090  1.0000
  C   C2        1.0  0.55170  0.03574  0.87910  1.0000
  C   C3        1.0  0.48434  0.03553  0.37910  1.0000
  C   C4        1.0  0.44830  0.96426  0.12090  1.0000
  C   C5        1.0  0.30005  0.84092  0.58434  1.0000
  C   C6        1.0  0.45952  0.15924  0.91567  1.0000
  C   C7        1.0  0.69995  0.15908  0.41566  1.0000
  C   C8        1.0  0.54048  0.84076  0.08433  1.0000
  C   C9        1.0  0.32391  0.61015  0.63346  1.0000
  C   C10       1.0  0.71403  0.38992  0.86650  1.0000
  C   C11       1.0  0.67609  0.38985  0.36654  1.0000
  C   C12       1.0  0.28597  0.61008  0.13350  1.0000
  C   C13       1.0  0.22154  0.56029  0.45695  1.0000
  C   C14       1.0  0.66154  0.43992  0.04301  1.0000
  C   C15       1.0  0.77846  0.43971  0.54305  1.0000
  C   C16       1.0  0.33846  0.56008  0.95699  1.0000
  C   C17       1.0  0.23366  0.42399  0.46957  1.0000
  C   C18       1.0  0.80994  0.57617  0.03036  1.0000
  C   C19       1.0  0.76634  0.57601  0.53043  1.0000
  C   C20       1.0  0.19006  0.42383  0.96964  1.0000
  C   C21       1.0  0.31014  0.34090  0.63166  1.0000
  C   C22       1.0  0.96933  0.65904  0.86817  1.0000
  C   C23       1.0  0.68986  0.65910  0.36834  1.0000
  C   C24       1.0  0.03067  0.34096  0.13183  1.0000
  C   C25       1.0  0.12453  0.27261  0.68823  1.0000
  C   C26       1.0  0.85174  0.72713  0.81156  1.0000
  C   C27       1.0  0.87547  0.72739  0.31177  1.0000
  C   C28       1.0  0.14826  0.27287  0.18844  1.0000
  N   N1        1.0  0.27683  0.67348  0.55991  1.0000
  N   N2        1.0  0.60360  0.32668  0.94006  1.0000
  N   N3        1.0  0.72317  0.32652  0.44009  1.0000
  N   N4        1.0  0.39640  0.67332  0.05994  1.0000
  N   N5        1.0  0.29874  0.45813  0.57961  1.0000
  N   N6        1.0  0.84088  0.54191  0.92032  1.0000
  N   N7        1.0  0.70126  0.54187  0.42039  1.0000
  N   N8        1.0  0.15912  0.45809  0.07968  1.0000
  O   O1        1.0  0.64570  0.90475  0.62371  1.0000
  O   O2        1.0  0.74137  0.09552  0.87613  1.0000
  O   O3        1.0  0.35429  0.09525  0.37629  1.0000
  O   O4        1.0  0.25863  0.90448  0.12387  1.0000
  O   O5        1.0  0.54550  0.10996  0.64627  1.0000
  O   O6        1.0  0.43624  0.89022  0.85380  1.0000
  O   O7        1.0  0.45450  0.89004  0.35374  1.0000
  O   O8        1.0  0.56376  0.10978  0.14620  1.0000
  O   O9        1.0  0.10990  0.14632  0.71636  1.0000
  O   O10       1.0  0.96327  0.85344  0.78342  1.0000
  O   O11       1.0  0.89009  0.85368  0.28364  1.0000
  O   O12       1.0  0.03674  0.14657  0.21658  1.0000
  O   O13       1.0  0.00930  0.34113  0.70519  1.0000
  O   O14       1.0  0.66806  0.65848  0.79459  1.0000
  O   O15       1.0  0.99070  0.65887  0.29481  1.0000
  O   O16       1.0  0.33194  0.34152  0.20541  1.0000
