data_image0
_chemical_formula_structural       V4P2H18C20N4O15
_chemical_formula_sum              "V4 P2 H18 C20 N4 O15"
_cell_length_a       8.28861
_cell_length_b       9.15958
_cell_length_c       9.55194
_cell_angle_alpha    97.5263
_cell_angle_beta     109.596
_cell_angle_gamma    98.392

_space_group_name_H-M_alt    "P 1"
_space_group_IT_number       1

loop_
  _space_group_symop_operation_xyz
  'x, y, z'

loop_
  _atom_site_type_symbol
  _atom_site_label
  _atom_site_symmetry_multiplicity
  _atom_site_fract_x
  _atom_site_fract_y
  _atom_site_fract_z
  _atom_site_occupancy
  V   V1        1.0  0.47490  0.68812  0.48204  1.0000
  V   V2        1.0  0.52510  0.31189  0.51797  1.0000
  V   V3        1.0  0.05847  0.77518  0.37716  1.0000
  V   V4        1.0  0.94153  0.22482  0.62284  1.0000
  P   P1        1.0  0.72267  0.92301  0.37896  1.0000
  P   P2        1.0  0.27733  0.07700  0.62104  1.0000
  H   H1        1.0  0.26280  0.99880  0.23168  1.0000
  H   H2        1.0  0.73721  0.00120  0.76832  1.0000
  H   H3        1.0  0.27307  0.02546  0.97505  1.0000
  H   H4        1.0  0.72693  0.97453  0.02494  1.0000
  H   H5        1.0  0.05741  0.84324  0.74670  1.0000
  H   H6        1.0  0.94259  0.15675  0.25330  1.0000
  H   H7        1.0  0.85337  0.63735  0.78168  1.0000
  H   H8        1.0  0.14663  0.36265  0.21832  1.0000
  H   H9        1.0  0.69831  0.47115  0.83393  1.0000
  H   H10       1.0  0.30170  0.52884  0.16607  1.0000
  H   H11       1.0  0.52107  0.27583  0.91112  1.0000
  H   H12       1.0  0.47894  0.72416  0.08889  1.0000
  H   H13       1.0  0.57769  0.29081  0.19012  1.0000
  H   H14       1.0  0.42231  0.70919  0.80988  1.0000
  H   H15       1.0  0.81340  0.49534  0.37605  1.0000
  H   H16       1.0  0.18660  0.50466  0.62395  1.0000
  H   H17       1.0  0.54796  0.07474  0.29124  1.0000
  H   H18       1.0  0.45204  0.92527  0.70876  1.0000
  C   C1        1.0  0.17735  0.91988  0.12908  1.0000
  C   C2        1.0  0.82264  0.08011  0.87092  1.0000
  C   C3        1.0  0.18018  0.93541  0.98688  1.0000
  C   C4        1.0  0.81982  0.06458  0.01311  1.0000
  C   C5        1.0  0.06090  0.83392  0.86001  1.0000
  C   C6        1.0  0.93911  0.16607  0.13998  1.0000
  C   C7        1.0  0.94577  0.71854  0.87961  1.0000
  C   C8        1.0  0.05424  0.28145  0.12039  1.0000
  C   C9        1.0  0.95383  0.70759  0.02645  1.0000
  C   C10       1.0  0.04617  0.29240  0.97355  1.0000
  C   C11       1.0  0.84514  0.58788  0.06293  1.0000
  C   C12       1.0  0.15486  0.41212  0.93707  1.0000
  C   C13       1.0  0.71802  0.47417  0.95267  1.0000
  C   C14       1.0  0.28198  0.52582  0.04733  1.0000
  C   C15       1.0  0.61975  0.36526  0.99605  1.0000
  C   C16       1.0  0.38025  0.63473  0.00395  1.0000
  C   C17       1.0  0.65137  0.37250  0.14977  1.0000
  C   C18       1.0  0.34864  0.62750  0.85023  1.0000
  C   C19       1.0  0.78102  0.48676  0.25467  1.0000
  C   C20       1.0  0.21898  0.51323  0.74534  1.0000
  N   N1        1.0  0.06741  0.80858  0.14838  1.0000
  N   N2        1.0  0.93259  0.19142  0.85162  1.0000
  N   N3        1.0  0.87672  0.59284  0.21309  1.0000
  N   N4        1.0  0.12328  0.40716  0.78691  1.0000
  O   O1        1.0  0.50001  0.50001  0.50001  1.0000
  O   O2        1.0  0.53041  0.79257  0.65061  1.0000
  O   O3        1.0  0.46959  0.20745  0.34940  1.0000
  O   O4        1.0  0.26297  0.68531  0.38275  1.0000
  O   O5        1.0  0.73703  0.31469  0.61726  1.0000
  O   O6        1.0  0.02288  0.70909  0.51477  1.0000
  O   O7        1.0  0.97711  0.29091  0.48523  1.0000
  O   O8        1.0  0.86671  0.88964  0.32277  1.0000
  O   O9        1.0  0.13329  0.11036  0.67723  1.0000
  O   O10       1.0  0.77734  0.02702  0.53268  1.0000
  O   O11       1.0  0.22266  0.97299  0.46732  1.0000
  O   O12       1.0  0.59864  0.99177  0.25085  1.0000
  O   O13       1.0  0.40135  0.00823  0.74915  1.0000
  O   O14       1.0  0.61112  0.76957  0.38357  1.0000
  O   O15       1.0  0.38889  0.23044  0.61644  1.0000
