data_image0
_chemical_formula_structural       Nd4P8H32C12N4O28
_chemical_formula_sum              "Nd4 P8 H32 C12 N4 O28"
_cell_length_a       8.17017
_cell_length_b       10.0325
_cell_length_c       10.4102
_cell_angle_alpha    89.9999
_cell_angle_beta     89.9999
_cell_angle_gamma    95.9953

_space_group_name_H-M_alt    "P 1"
_space_group_IT_number       1

loop_
  _space_group_symop_operation_xyz
  'x, y, z'

loop_
  _atom_site_type_symbol
  _atom_site_label
  _atom_site_symmetry_multiplicity
  _atom_site_fract_x
  _atom_site_fract_y
  _atom_site_fract_z
  _atom_site_occupancy
  Nd  Nd1       1.0  0.77250  0.88945  0.87019  1.0000
  Nd  Nd2       1.0  0.22750  0.61055  0.37019  1.0000
  Nd  Nd3       1.0  0.22750  0.11055  0.12980  1.0000
  Nd  Nd4       1.0  0.77250  0.38944  0.62981  1.0000
  P   P1        1.0  0.93649  0.21971  0.89905  1.0000
  P   P2        1.0  0.06351  0.28029  0.39905  1.0000
  P   P3        1.0  0.06351  0.78029  0.10095  1.0000
  P   P4        1.0  0.93649  0.71970  0.60095  1.0000
  P   P5        1.0  0.55753  0.18379  0.88650  1.0000
  P   P6        1.0  0.44248  0.31621  0.38651  1.0000
  P   P7        1.0  0.44247  0.81621  0.11350  1.0000
  P   P8        1.0  0.55752  0.68378  0.61349  1.0000
  H   H1        1.0  0.63673  0.04126  0.09214  1.0000
  H   H2        1.0  0.36327  0.45874  0.59214  1.0000
  H   H3        1.0  0.36327  0.95874  0.90786  1.0000
  H   H4        1.0  0.63673  0.54126  0.40786  1.0000
  H   H5        1.0  0.68686  0.64351  0.10398  1.0000
  H   H6        1.0  0.31314  0.85649  0.60398  1.0000
  H   H7        1.0  0.31314  0.35649  0.89602  1.0000
  H   H8        1.0  0.68686  0.14351  0.39602  1.0000
  H   H9        1.0  0.83503  0.57508  0.18570  1.0000
  H   H10       1.0  0.16498  0.92491  0.68570  1.0000
  H   H11       1.0  0.16498  0.42491  0.81430  1.0000
  H   H12       1.0  0.83503  0.07508  0.31430  1.0000
  H   H13       1.0  0.63163  0.51992  0.20968  1.0000
  H   H14       1.0  0.36837  0.98008  0.70968  1.0000
  H   H15       1.0  0.36837  0.48008  0.79032  1.0000
  H   H16       1.0  0.63163  0.01992  0.29032  1.0000
  H   H17       1.0  0.62877  0.28818  0.15371  1.0000
  H   H18       1.0  0.37123  0.21182  0.65371  1.0000
  H   H19       1.0  0.37123  0.71182  0.84629  1.0000
  H   H20       1.0  0.62878  0.78818  0.34629  1.0000
  H   H21       1.0  0.84852  0.31277  0.15314  1.0000
  H   H22       1.0  0.15148  0.18723  0.65314  1.0000
  H   H23       1.0  0.15148  0.68723  0.84686  1.0000
  H   H24       1.0  0.84853  0.81277  0.34687  1.0000
  H   H25       1.0  0.83970  0.48693  0.97991  1.0000
  H   H26       1.0  0.16030  0.01307  0.47991  1.0000
  H   H27       1.0  0.16030  0.51307  0.02009  1.0000
  H   H28       1.0  0.83971  0.98693  0.52009  1.0000
  H   H29       1.0  0.62244  0.45710  0.97577  1.0000
  H   H30       1.0  0.37756  0.04290  0.47577  1.0000
  H   H31       1.0  0.37757  0.54290  0.02423  1.0000
  H   H32       1.0  0.62244  0.95710  0.52423  1.0000
  C   C1        1.0  0.74162  0.20210  0.99215  1.0000
  C   C2        1.0  0.25838  0.29790  0.49215  1.0000
  C   C3        1.0  0.25838  0.79790  0.00785  1.0000
  C   C4        1.0  0.74162  0.70210  0.50785  1.0000
  C   C5        1.0  0.73779  0.31329  0.09307  1.0000
  C   C6        1.0  0.26221  0.18671  0.59307  1.0000
  C   C7        1.0  0.26221  0.68671  0.90693  1.0000
  C   C8        1.0  0.73779  0.81329  0.40693  1.0000
  C   C9        1.0  0.73082  0.45311  0.03725  1.0000
  C   C10       1.0  0.26918  0.04689  0.53725  1.0000
  C   C11       1.0  0.26918  0.54689  0.96275  1.0000
  C   C12       1.0  0.73082  0.95311  0.46275  1.0000
  N   N1        1.0  0.72010  0.55334  0.14218  1.0000
  N   N2        1.0  0.27990  0.94666  0.64218  1.0000
  N   N3        1.0  0.27990  0.44666  0.85782  1.0000
  N   N4        1.0  0.72010  0.05334  0.35782  1.0000
  O   O1        1.0  0.93353  0.08778  0.82412  1.0000
  O   O2        1.0  0.06647  0.41222  0.32412  1.0000
  O   O3        1.0  0.06647  0.91222  0.17588  1.0000
  O   O4        1.0  0.93353  0.58778  0.67588  1.0000
  O   O5        1.0  0.07207  0.23769  0.00120  1.0000
  O   O6        1.0  0.92793  0.26231  0.50120  1.0000
  O   O7        1.0  0.92793  0.76231  0.99880  1.0000
  O   O8        1.0  0.07207  0.73769  0.49880  1.0000
  O   O9        1.0  0.94360  0.34217  0.80980  1.0000
  O   O10       1.0  0.05640  0.15783  0.30979  1.0000
  O   O11       1.0  0.05640  0.65783  0.19020  1.0000
  O   O12       1.0  0.94360  0.84217  0.69021  1.0000
  O   O13       1.0  0.74838  0.07272  0.05545  1.0000
  O   O14       1.0  0.25162  0.42728  0.55545  1.0000
  O   O15       1.0  0.25162  0.92728  0.94455  1.0000
  O   O16       1.0  0.74838  0.57272  0.44455  1.0000
  O   O17       1.0  0.53715  0.03422  0.84387  1.0000
  O   O18       1.0  0.46285  0.46577  0.34387  1.0000
  O   O19       1.0  0.46285  0.96578  0.15613  1.0000
  O   O20       1.0  0.53715  0.53423  0.65613  1.0000
  O   O21       1.0  0.40964  0.21777  0.96681  1.0000
  O   O22       1.0  0.59036  0.28223  0.46681  1.0000
  O   O23       1.0  0.59036  0.78223  0.03319  1.0000
  O   O24       1.0  0.40964  0.71776  0.53319  1.0000
  O   O25       1.0  0.58696  0.27940  0.77289  1.0000
  O   O26       1.0  0.41304  0.22059  0.27289  1.0000
  O   O27       1.0  0.41304  0.72060  0.22711  1.0000
  O   O28       1.0  0.58696  0.77941  0.72711  1.0000
