data_image0
_chemical_formula_structural       Zn2H24C16N12O12
_chemical_formula_sum              "Zn2 H24 C16 N12 O12"
_cell_length_a       7.75287
_cell_length_b       7.68794
_cell_length_c       12.4993
_cell_angle_alpha    90
_cell_angle_beta     89.9999
_cell_angle_gamma    116.848

_space_group_name_H-M_alt    "P 1"
_space_group_IT_number       1

loop_
  _space_group_symop_operation_xyz
  'x, y, z'

loop_
  _atom_site_type_symbol
  _atom_site_label
  _atom_site_symmetry_multiplicity
  _atom_site_fract_x
  _atom_site_fract_y
  _atom_site_fract_z
  _atom_site_occupancy
  Zn  Zn1       1.0  0.50000  0.00000  1.00000  1.0000
  Zn  Zn2       1.0  0.50000  0.50000  0.50000  1.0000
  H   H1        1.0  0.38952  0.10120  0.74641  1.0000
  H   H2        1.0  0.61048  0.39880  0.24641  1.0000
  H   H3        1.0  0.61048  0.89880  0.25359  1.0000
  H   H4        1.0  0.38953  0.60120  0.75360  1.0000
  H   H5        1.0  0.86256  0.01753  0.85418  1.0000
  H   H6        1.0  0.13743  0.48247  0.35418  1.0000
  H   H7        1.0  0.13743  0.98247  0.14583  1.0000
  H   H8        1.0  0.86256  0.51752  0.64582  1.0000
  H   H9        1.0  0.86113  0.98801  0.56126  1.0000
  H   H10       1.0  0.13887  0.51199  0.06126  1.0000
  H   H11       1.0  0.13887  0.01199  0.43874  1.0000
  H   H12       1.0  0.86114  0.48801  0.93873  1.0000
  H   H13       1.0  0.99604  0.99823  0.67777  1.0000
  H   H14       1.0  0.00397  0.50177  0.17777  1.0000
  H   H15       1.0  0.00397  0.00177  0.32223  1.0000
  H   H16       1.0  0.99605  0.49824  0.82222  1.0000
  H   H17       1.0  0.37428  0.27918  0.03478  1.0000
  H   H18       1.0  0.62572  0.22082  0.53478  1.0000
  H   H19       1.0  0.62572  0.72082  0.96522  1.0000
  H   H20       1.0  0.37428  0.77918  0.46522  1.0000
  H   H21       1.0  0.25673  0.12112  0.94135  1.0000
  H   H22       1.0  0.74327  0.37887  0.44135  1.0000
  H   H23       1.0  0.74327  0.87887  0.05865  1.0000
  H   H24       1.0  0.25672  0.62112  0.55865  1.0000
  C   C1        1.0  0.52278  0.08751  0.74862  1.0000
  C   C2        1.0  0.47722  0.41249  0.24862  1.0000
  C   C3        1.0  0.47723  0.91249  0.25138  1.0000
  C   C4        1.0  0.52277  0.58751  0.75138  1.0000
  C   C5        1.0  0.76161  0.04838  0.80698  1.0000
  C   C6        1.0  0.23839  0.45162  0.30698  1.0000
  C   C7        1.0  0.23839  0.95162  0.19302  1.0000
  C   C8        1.0  0.76160  0.54838  0.69301  1.0000
  C   C9        1.0  0.92944  0.07507  0.63297  1.0000
  C   C10       1.0  0.07056  0.42493  0.13297  1.0000
  C   C11       1.0  0.07056  0.92493  0.36703  1.0000
  C   C12       1.0  0.92945  0.57508  0.86703  1.0000
  C   C13       1.0  0.08990  0.27553  0.60049  1.0000
  C   C14       1.0  0.91009  0.22448  0.10049  1.0000
  C   C15       1.0  0.91009  0.72448  0.39951  1.0000
  C   C16       1.0  0.08991  0.77552  0.89951  1.0000
  N   N1        1.0  0.78016  0.07904  0.70097  1.0000
  N   N2        1.0  0.21984  0.42096  0.20097  1.0000
  N   N3        1.0  0.21984  0.92096  0.29903  1.0000
  N   N4        1.0  0.78017  0.57904  0.79903  1.0000
  N   N5        1.0  0.62950  0.10516  0.66231  1.0000
  N   N6        1.0  0.37049  0.39484  0.16231  1.0000
  N   N7        1.0  0.37049  0.89484  0.33769  1.0000
  N   N8        1.0  0.62951  0.60516  0.83769  1.0000
  N   N9        1.0  0.59921  0.05208  0.83953  1.0000
  N   N10       1.0  0.40078  0.44792  0.33953  1.0000
  N   N11       1.0  0.40078  0.94792  0.16047  1.0000
  N   N12       1.0  0.59921  0.55208  0.66047  1.0000
  O   O1        1.0  0.38677  0.20495  0.97268  1.0000
  O   O2        1.0  0.61323  0.29505  0.47268  1.0000
  O   O3        1.0  0.61323  0.79505  0.02732  1.0000
  O   O4        1.0  0.38677  0.70495  0.52732  1.0000
  O   O5        1.0  0.22785  0.26451  0.55090  1.0000
  O   O6        1.0  0.77215  0.23550  0.05090  1.0000
  O   O7        1.0  0.77215  0.73549  0.44911  1.0000
  O   O8        1.0  0.22785  0.76451  0.94910  1.0000
  O   O9        1.0  0.07536  0.42845  0.62406  1.0000
  O   O10       1.0  0.92463  0.07154  0.12406  1.0000
  O   O11       1.0  0.92463  0.57154  0.37594  1.0000
  O   O12       1.0  0.07537  0.92846  0.87594  1.0000
