data_image0
_chemical_formula_structural       Ni2H24C16N12O12
_chemical_formula_sum              "Ni2 H24 C16 N12 O12"
_cell_length_a       7.65534
_cell_length_b       7.74159
_cell_length_c       12.4274
_cell_angle_alpha    90
_cell_angle_beta     90
_cell_angle_gamma    117.677

_space_group_name_H-M_alt    "P 1"
_space_group_IT_number       1

loop_
  _space_group_symop_operation_xyz
  'x, y, z'

loop_
  _atom_site_type_symbol
  _atom_site_label
  _atom_site_symmetry_multiplicity
  _atom_site_fract_x
  _atom_site_fract_y
  _atom_site_fract_z
  _atom_site_occupancy
  Ni  Ni1       1.0  0.50000  0.50000  0.50000  1.0000
  Ni  Ni2       1.0  0.50000  0.00000  1.00000  1.0000
  H   H1        1.0  0.38185  0.10066  0.75402  1.0000
  H   H2        1.0  0.61815  0.39934  0.25402  1.0000
  H   H3        1.0  0.61815  0.89935  0.24598  1.0000
  H   H4        1.0  0.38186  0.60066  0.74598  1.0000
  H   H5        1.0  0.86517  0.02058  0.85480  1.0000
  H   H6        1.0  0.13483  0.47942  0.35480  1.0000
  H   H7        1.0  0.13483  0.97942  0.14520  1.0000
  H   H8        1.0  0.86517  0.52058  0.64520  1.0000
  H   H9        1.0  0.85444  0.99334  0.55960  1.0000
  H   H10       1.0  0.14556  0.50667  0.05960  1.0000
  H   H11       1.0  0.14556  0.00666  0.44040  1.0000
  H   H12       1.0  0.85444  0.49334  0.94040  1.0000
  H   H13       1.0  0.99407  0.00141  0.67479  1.0000
  H   H14       1.0  0.00593  0.49859  0.17479  1.0000
  H   H15       1.0  0.00592  0.99859  0.32521  1.0000
  H   H16       1.0  0.99408  0.50141  0.82521  1.0000
  H   H17       1.0  0.73547  0.37608  0.44360  1.0000
  H   H18       1.0  0.26453  0.12392  0.94360  1.0000
  H   H19       1.0  0.26453  0.62392  0.55640  1.0000
  H   H20       1.0  0.73547  0.87608  0.05640  1.0000
  H   H21       1.0  0.61424  0.22391  0.53965  1.0000
  H   H22       1.0  0.38576  0.27609  0.03965  1.0000
  H   H23       1.0  0.38576  0.77609  0.46035  1.0000
  H   H24       1.0  0.61424  0.72391  0.96035  1.0000
  C   C1        1.0  0.09157  0.28060  0.59966  1.0000
  C   C2        1.0  0.90843  0.21940  0.09966  1.0000
  C   C3        1.0  0.90843  0.71940  0.40034  1.0000
  C   C4        1.0  0.09157  0.78060  0.90034  1.0000
  C   C5        1.0  0.51719  0.08821  0.75392  1.0000
  C   C6        1.0  0.48281  0.41179  0.25392  1.0000
  C   C7        1.0  0.48281  0.91179  0.24608  1.0000
  C   C8        1.0  0.51719  0.58820  0.74608  1.0000
  C   C9        1.0  0.76123  0.05031  0.80881  1.0000
  C   C10       1.0  0.23877  0.44969  0.30881  1.0000
  C   C11       1.0  0.23877  0.94969  0.19119  1.0000
  C   C12       1.0  0.76123  0.55031  0.69119  1.0000
  C   C13       1.0  0.92660  0.07927  0.63182  1.0000
  C   C14       1.0  0.07339  0.42073  0.13182  1.0000
  C   C15       1.0  0.07339  0.92072  0.36818  1.0000
  C   C16       1.0  0.92660  0.57927  0.86818  1.0000
  N   N1        1.0  0.59709  0.05195  0.84390  1.0000
  N   N2        1.0  0.40291  0.44805  0.34390  1.0000
  N   N3        1.0  0.40291  0.94805  0.15610  1.0000
  N   N4        1.0  0.59709  0.55195  0.65610  1.0000
  N   N5        1.0  0.77715  0.08207  0.70215  1.0000
  N   N6        1.0  0.22284  0.41793  0.20215  1.0000
  N   N7        1.0  0.22284  0.91793  0.29785  1.0000
  N   N8        1.0  0.77715  0.58207  0.79785  1.0000
  N   N9        1.0  0.62289  0.10732  0.66570  1.0000
  N   N10       1.0  0.37711  0.39268  0.16570  1.0000
  N   N11       1.0  0.37711  0.89268  0.33430  1.0000
  N   N12       1.0  0.62289  0.60732  0.83430  1.0000
  O   O1        1.0  0.23121  0.26982  0.54960  1.0000
  O   O2        1.0  0.76879  0.23018  0.04960  1.0000
  O   O3        1.0  0.76879  0.73017  0.45040  1.0000
  O   O4        1.0  0.23121  0.76982  0.95040  1.0000
  O   O5        1.0  0.60220  0.29404  0.47525  1.0000
  O   O6        1.0  0.39780  0.20596  0.97525  1.0000
  O   O7        1.0  0.39780  0.70596  0.52475  1.0000
  O   O8        1.0  0.60220  0.79404  0.02475  1.0000
  O   O9        1.0  0.07866  0.43305  0.62362  1.0000
  O   O10       1.0  0.92134  0.06695  0.12362  1.0000
  O   O11       1.0  0.92134  0.56694  0.37638  1.0000
  O   O12       1.0  0.07866  0.93305  0.87638  1.0000
