data_image0
_chemical_formula_structural       Cd2H16C16N12O8
_chemical_formula_sum              "Cd2 H16 C16 N12 O8"
_cell_length_a       4.88973
_cell_length_b       8.74855
_cell_length_c       12.4189
_cell_angle_alpha    91.4776
_cell_angle_beta     90
_cell_angle_gamma    89.9999

_space_group_name_H-M_alt    "P 1"
_space_group_IT_number       1

loop_
  _space_group_symop_operation_xyz
  'x, y, z'

loop_
  _atom_site_type_symbol
  _atom_site_label
  _atom_site_symmetry_multiplicity
  _atom_site_fract_x
  _atom_site_fract_y
  _atom_site_fract_z
  _atom_site_occupancy
  Cd  Cd1       1.0  0.00000  1.00000  0.50000  1.0000
  Cd  Cd2       1.0  0.50000  0.50000  1.00000  1.0000
  H   H1        1.0  0.54620  0.32847  0.50591  1.0000
  H   H2        1.0  0.04620  0.17153  0.99409  1.0000
  H   H3        1.0  0.45380  0.67153  0.49409  1.0000
  H   H4        1.0  0.95380  0.82847  0.00591  1.0000
  H   H5        1.0  0.25511  0.25695  0.31987  1.0000
  H   H6        1.0  0.75511  0.24305  0.18013  1.0000
  H   H7        1.0  0.74489  0.74305  0.68013  1.0000
  H   H8        1.0  0.24489  0.75695  0.81987  1.0000
  H   H9        1.0  0.33769  0.54527  0.27302  1.0000
  H   H10       1.0  0.83768  0.95473  0.22698  1.0000
  H   H11       1.0  0.66231  0.45473  0.72698  1.0000
  H   H12       1.0  0.16231  0.04527  0.77302  1.0000
  H   H13       1.0  0.08587  0.67957  0.31918  1.0000
  H   H14       1.0  0.58587  0.82042  0.18082  1.0000
  H   H15       1.0  0.91413  0.32042  0.68082  1.0000
  H   H16       1.0  0.41413  0.17958  0.81919  1.0000
  C   C1        1.0  0.71635  0.34706  0.45145  1.0000
  C   C2        1.0  0.21635  0.15294  0.04855  1.0000
  C   C3        1.0  0.28365  0.65294  0.54855  1.0000
  C   C4        1.0  0.78365  0.84706  0.95145  1.0000
  C   C5        1.0  0.07658  0.30731  0.35814  1.0000
  C   C6        1.0  0.57658  0.19269  0.14186  1.0000
  C   C7        1.0  0.92342  0.69269  0.64186  1.0000
  C   C8        1.0  0.42342  0.80731  0.85814  1.0000
  C   C9        1.0  0.11715  0.56736  0.27921  1.0000
  C   C10       1.0  0.61715  0.93264  0.22079  1.0000
  C   C11       1.0  0.88285  0.43264  0.72079  1.0000
  C   C12       1.0  0.38285  0.06736  0.77921  1.0000
  C   C13       1.0  0.98817  0.57291  0.16642  1.0000
  C   C14       1.0  0.48817  0.92709  0.33358  1.0000
  C   C15       1.0  0.01183  0.42709  0.83358  1.0000
  C   C16       1.0  0.51183  0.07291  0.66642  1.0000
  N   N1        1.0  0.90454  0.23700  0.42443  1.0000
  N   N2        1.0  0.40454  0.26300  0.07557  1.0000
  N   N3        1.0  0.09546  0.76300  0.57557  1.0000
  N   N4        1.0  0.59546  0.73700  0.92442  1.0000
  N   N5        1.0  0.99441  0.45256  0.34639  1.0000
  N   N6        1.0  0.49441  0.04744  0.15361  1.0000
  N   N7        1.0  0.00559  0.54744  0.65361  1.0000
  N   N8        1.0  0.50558  0.95256  0.84639  1.0000
  N   N9        1.0  0.76322  0.47986  0.40496  1.0000
  N   N10       1.0  0.26322  0.02014  0.09504  1.0000
  N   N11       1.0  0.23678  0.52014  0.59504  1.0000
  N   N12       1.0  0.73677  0.97986  0.90496  1.0000
  O   O1        1.0  0.13348  0.62625  0.09231  1.0000
  O   O2        1.0  0.63348  0.87375  0.40770  1.0000
  O   O3        1.0  0.86652  0.37375  0.90769  1.0000
  O   O4        1.0  0.36652  0.12625  0.59231  1.0000
  O   O5        1.0  0.74128  0.52858  0.15871  1.0000
  O   O6        1.0  0.24128  0.97142  0.34129  1.0000
  O   O7        1.0  0.25873  0.47142  0.84129  1.0000
  O   O8        1.0  0.75872  0.02858  0.65871  1.0000
