data_image0
_chemical_formula_structural       Zn2H12C14O16
_chemical_formula_sum              "Zn2 H12 C14 O16"
_cell_length_a       5.05226
_cell_length_b       9.16723
_cell_length_c       9.9682
_cell_angle_alpha    104.719
_cell_angle_beta     95.9508
_cell_angle_gamma    93.1093

_space_group_name_H-M_alt    "P 1"
_space_group_IT_number       1

loop_
  _space_group_symop_operation_xyz
  'x, y, z'

loop_
  _atom_site_type_symbol
  _atom_site_label
  _atom_site_symmetry_multiplicity
  _atom_site_fract_x
  _atom_site_fract_y
  _atom_site_fract_z
  _atom_site_occupancy
  Zn  Zn1       1.0  0.29412  0.68351  0.78005  1.0000
  Zn  Zn2       1.0  0.70588  0.31649  0.21995  1.0000
  H   H1        1.0  0.55209  0.45775  0.66050  1.0000
  H   H2        1.0  0.44791  0.54225  0.33950  1.0000
  H   H3        1.0  0.55487  0.45963  0.82492  1.0000
  H   H4        1.0  0.44513  0.54037  0.17508  1.0000
  H   H5        1.0  0.58836  0.92308  0.79213  1.0000
  H   H6        1.0  0.41164  0.07691  0.20787  1.0000
  H   H7        1.0  0.76655  0.81351  0.86984  1.0000
  H   H8        1.0  0.23345  0.18649  0.13016  1.0000
  H   H9        1.0  0.72220  0.88911  0.52083  1.0000
  H   H10       1.0  0.27779  0.11089  0.47916  1.0000
  H   H11       1.0  0.71592  0.89126  0.08384  1.0000
  H   H12       1.0  0.28408  0.10874  0.91616  1.0000
  C   C1        1.0  0.13361  0.69638  0.51232  1.0000
  C   C2        1.0  0.86638  0.30362  0.48768  1.0000
  C   C3        1.0  0.98935  0.75601  0.40051  1.0000
  C   C4        1.0  0.01065  0.24399  0.59949  1.0000
  C   C5        1.0  0.79174  0.85124  0.41886  1.0000
  C   C6        1.0  0.20825  0.14876  0.58114  1.0000
  C   C7        1.0  0.67116  0.90130  0.30281  1.0000
  C   C8        1.0  0.32883  0.09870  0.69719  1.0000
  C   C9        1.0  0.78930  0.85314  0.17468  1.0000
  C   C10       1.0  0.21070  0.14686  0.82532  1.0000
  C   C11       1.0  0.98402  0.75575  0.16565  1.0000
  C   C12       1.0  0.01598  0.24425  0.83435  1.0000
  C   C13       1.0  0.12158  0.69310  0.03913  1.0000
  C   C14       1.0  0.87843  0.30691  0.96087  1.0000
  O   O1        1.0  0.31169  0.60795  0.48282  1.0000
  O   O2        1.0  0.68830  0.39205  0.51718  1.0000
  O   O3        1.0  0.06222  0.74516  0.63498  1.0000
  O   O4        1.0  0.93778  0.25484  0.36502  1.0000
  O   O5        1.0  0.08113  0.70477  0.27545  1.0000
  O   O6        1.0  0.91887  0.29523  0.72455  1.0000
  O   O7        1.0  0.47324  0.98123  0.31316  1.0000
  O   O8        1.0  0.52675  0.01876  0.68683  1.0000
  O   O9        1.0  0.30176  0.60635  0.04566  1.0000
  O   O10       1.0  0.69824  0.39365  0.95434  1.0000
  O   O11       1.0  0.04687  0.73703  0.92867  1.0000
  O   O12       1.0  0.95313  0.26297  0.07133  1.0000
  O   O13       1.0  0.45688  0.49142  0.74581  1.0000
  O   O14       1.0  0.54312  0.50858  0.25419  1.0000
  O   O15       1.0  0.58743  0.85012  0.85453  1.0000
  O   O16       1.0  0.41257  0.14988  0.14548  1.0000
