data_image0
_chemical_formula_structural       Cu4H28C32N12O8
_chemical_formula_sum              "Cu4 H28 C32 N12 O8"
_cell_length_a       4.96057
_cell_length_b       6.35003
_cell_length_c       27.125
_cell_angle_alpha    89.9999
_cell_angle_beta     89.9921
_cell_angle_gamma    90.0001

_space_group_name_H-M_alt    "P 1"
_space_group_IT_number       1

loop_
  _space_group_symop_operation_xyz
  'x, y, z'

loop_
  _atom_site_type_symbol
  _atom_site_label
  _atom_site_symmetry_multiplicity
  _atom_site_fract_x
  _atom_site_fract_y
  _atom_site_fract_z
  _atom_site_occupancy
  Cu  Cu1       1.0  0.99846  0.63044  0.25182  1.0000
  Cu  Cu2       1.0  0.50170  0.36941  0.75180  1.0000
  Cu  Cu3       1.0  0.00156  0.13044  0.24818  1.0000
  Cu  Cu4       1.0  0.49829  0.86941  0.74820  1.0000
  H   H1        1.0  0.90540  0.33972  0.43679  1.0000
  H   H2        1.0  0.59467  0.66027  0.93683  1.0000
  H   H3        1.0  0.09460  0.83971  0.06321  1.0000
  H   H4        1.0  0.40531  0.16027  0.56317  1.0000
  H   H5        1.0  0.81081  0.35026  0.37373  1.0000
  H   H6        1.0  0.68928  0.64967  0.87375  1.0000
  H   H7        1.0  0.18919  0.85026  0.12627  1.0000
  H   H8        1.0  0.31070  0.14967  0.62625  1.0000
  H   H9        1.0  0.07778  0.18543  0.39205  1.0000
  H   H10       1.0  0.42233  0.81453  0.89208  1.0000
  H   H11       1.0  0.92222  0.68541  0.10795  1.0000
  H   H12       1.0  0.57765  0.31453  0.60792  1.0000
  H   H13       1.0  0.15387  0.62879  0.44296  1.0000
  H   H14       1.0  0.34609  0.37136  0.94288  1.0000
  H   H15       1.0  0.84615  0.12879  0.05704  1.0000
  H   H16       1.0  0.65392  0.87137  0.55712  1.0000
  H   H17       1.0  0.23076  0.92095  0.50229  1.0000
  H   H18       1.0  0.26942  0.07925  0.00224  1.0000
  H   H19       1.0  0.76925  0.42095  0.99771  1.0000
  H   H20       1.0  0.73058  0.57925  0.49776  1.0000
  H   H21       1.0  0.41929  0.61428  0.36522  1.0000
  H   H22       1.0  0.08048  0.38570  0.86518  1.0000
  H   H23       1.0  0.58072  0.11429  0.13478  1.0000
  H   H24       1.0  0.91952  0.88571  0.63482  1.0000
  H   H25       1.0  0.56813  0.19944  0.48305  1.0000
  H   H26       1.0  0.93212  0.80064  0.98306  1.0000
  H   H27       1.0  0.43187  0.69944  0.01695  1.0000
  H   H28       1.0  0.06786  0.30063  0.51694  1.0000
  C   C1        1.0  0.68227  0.07040  0.41292  1.0000
  C   C2        1.0  0.81781  0.92959  0.91293  1.0000
  C   C3        1.0  0.31774  0.57039  0.08708  1.0000
  C   C4        1.0  0.18218  0.42959  0.58707  1.0000
  C   C5        1.0  0.78083  0.88652  0.33169  1.0000
  C   C6        1.0  0.71911  0.11334  0.83170  1.0000
  C   C7        1.0  0.21918  0.38652  0.16831  1.0000
  C   C8        1.0  0.28088  0.61334  0.66830  1.0000
  C   C9        1.0  0.63842  0.90038  0.38012  1.0000
  C   C10       1.0  0.86150  0.09957  0.88011  1.0000
  C   C11       1.0  0.36160  0.40038  0.11988  1.0000
  C   C12       1.0  0.13848  0.59957  0.61989  1.0000
  C   C13       1.0  0.87955  0.24525  0.40330  1.0000
  C   C14       1.0  0.62055  0.75472  0.90333  1.0000
  C   C15       1.0  0.12046  0.74524  0.09671  1.0000
  C   C16       1.0  0.37943  0.25471  0.59667  1.0000
  C   C17       1.0  0.30271  0.74994  0.43494  1.0000
  C   C18       1.0  0.19726  0.25016  0.93489  1.0000
  C   C19       1.0  0.69730  0.24995  0.06506  1.0000
  C   C20       1.0  0.80273  0.75017  0.56511  1.0000
  C   C21       1.0  0.34577  0.91495  0.46799  1.0000
  C   C22       1.0  0.15435  0.08517  0.96795  1.0000
  C   C23       1.0  0.65424  0.41496  0.03202  1.0000
  C   C24       1.0  0.84564  0.58517  0.53205  1.0000
  C   C25       1.0  0.45114  0.74188  0.39142  1.0000
  C   C26       1.0  0.04876  0.25814  0.89139  1.0000
  C   C27       1.0  0.54887  0.24188  0.10858  1.0000
  C   C28       1.0  0.95123  0.75814  0.60861  1.0000
  C   C29       1.0  0.53417  0.07118  0.45698  1.0000
  C   C30       1.0  0.96598  0.92886  0.95697  1.0000
  C   C31       1.0  0.46584  0.57118  0.04302  1.0000
  C   C32       1.0  0.03401  0.42887  0.54303  1.0000
  N   N1        1.0  0.24945  0.88165  0.25447  1.0000
  N   N2        1.0  0.25027  0.11831  0.75431  1.0000
  N   N3        1.0  0.75058  0.38165  0.24553  1.0000
  N   N4        1.0  0.74972  0.61831  0.74568  1.0000
  N   N5        1.0  0.45145  0.87936  0.22945  1.0000
  N   N6        1.0  0.04739  0.12067  0.72959  1.0000
  N   N7        1.0  0.54854  0.37935  0.27056  1.0000
  N   N8        1.0  0.95260  0.62068  0.77041  1.0000
  N   N9        1.0  0.65313  0.87765  0.20750  1.0000
  N   N10       1.0  0.84501  0.12246  0.70781  1.0000
  N   N11       1.0  0.34690  0.37764  0.29250  1.0000
  N   N12       1.0  0.15498  0.62246  0.79219  1.0000
  O   O1        1.0  0.83132  0.70269  0.31477  1.0000
  O   O2        1.0  0.66873  0.29715  0.81473  1.0000
  O   O3        1.0  0.16869  0.20268  0.18523  1.0000
  O   O4        1.0  0.33127  0.79715  0.68527  1.0000
  O   O5        1.0  0.83267  0.06102  0.31053  1.0000
  O   O6        1.0  0.66719  0.93887  0.81053  1.0000
  O   O7        1.0  0.16735  0.56102  0.18947  1.0000
  O   O8        1.0  0.33279  0.43886  0.68947  1.0000
