data_image0
_chemical_formula_structural       H26Pb2C20N4Cl2O8
_chemical_formula_sum              "H26 Pb2 C20 N4 Cl2 O8"
_cell_length_a       7.31784
_cell_length_b       7.43324
_cell_length_c       13.1549
_cell_angle_alpha    89.3504
_cell_angle_beta     76.5042
_cell_angle_gamma    67.0944

_space_group_name_H-M_alt    "P 1"
_space_group_IT_number       1

loop_
  _space_group_symop_operation_xyz
  'x, y, z'

loop_
  _atom_site_type_symbol
  _atom_site_label
  _atom_site_symmetry_multiplicity
  _atom_site_fract_x
  _atom_site_fract_y
  _atom_site_fract_z
  _atom_site_occupancy
  H   H1        1.0  0.63967  0.82695  0.66913  1.0000
  H   H2        1.0  0.36033  0.17305  0.33086  1.0000
  H   H3        1.0  0.85159  0.84681  0.68542  1.0000
  H   H4        1.0  0.14841  0.15319  0.31458  1.0000
  H   H5        1.0  0.97787  0.97872  0.75782  1.0000
  H   H6        1.0  0.02211  0.02128  0.24219  1.0000
  H   H7        1.0  0.93366  0.14828  0.85749  1.0000
  H   H8        1.0  0.06635  0.85167  0.14252  1.0000
  H   H9        1.0  0.62352  0.29524  0.98726  1.0000
  H   H10       1.0  0.37648  0.70474  0.01274  1.0000
  H   H11       1.0  0.09811  0.20017  0.95187  1.0000
  H   H12       1.0  0.90188  0.79986  0.04812  1.0000
  H   H13       1.0  0.30898  0.99701  0.78143  1.0000
  H   H14       1.0  0.69102  0.00299  0.21857  1.0000
  H   H15       1.0  0.53770  0.40351  0.18097  1.0000
  H   H16       1.0  0.46231  0.59650  0.81903  1.0000
  H   H17       1.0  0.81211  0.32272  0.15588  1.0000
  H   H18       1.0  0.18789  0.67729  0.84413  1.0000
  H   H19       1.0  0.64538  0.56033  0.21712  1.0000
  H   H20       1.0  0.35462  0.43967  0.78288  1.0000
  H   H21       1.0  0.92478  0.47541  0.40966  1.0000
  H   H22       1.0  0.07523  0.52459  0.59035  1.0000
  H   H23       1.0  0.13946  0.52611  0.34365  1.0000
  H   H24       1.0  0.86056  0.47388  0.65636  1.0000
  H   H25       1.0  0.92378  0.57680  0.28731  1.0000
  H   H26       1.0  0.07624  0.42318  0.71270  1.0000
  Pb  Pb1       1.0  0.67003  0.17701  0.53525  1.0000
  Pb  Pb2       1.0  0.32995  0.82300  0.46475  1.0000
  C   C1        1.0  0.58387  0.02749  0.79016  1.0000
  C   C2        1.0  0.41612  0.97251  0.20984  1.0000
  C   C3        1.0  0.67481  0.11525  0.84734  1.0000
  C   C4        1.0  0.32519  0.88475  0.15266  1.0000
  C   C5        1.0  0.55507  0.22844  0.94227  1.0000
  C   C6        1.0  0.44492  0.77156  0.05772  1.0000
  C   C7        1.0  0.35052  0.25748  0.97798  1.0000
  C   C8        1.0  0.64948  0.74253  0.02202  1.0000
  C   C9        1.0  0.25862  0.17476  0.92190  1.0000
  C   C10       1.0  0.74137  0.82525  0.07810  1.0000
  C   C11       1.0  0.37749  0.06067  0.82807  1.0000
  C   C12       1.0  0.62251  0.93933  0.17193  1.0000
  C   C13       1.0  0.65425  0.33251  0.31862  1.0000
  C   C14       1.0  0.34575  0.66750  0.68138  1.0000
  C   C15       1.0  0.66449  0.40615  0.21091  1.0000
  C   C16       1.0  0.33551  0.59387  0.78908  1.0000
  C   C17       1.0  0.86852  0.77766  0.41723  1.0000
  C   C18       1.0  0.13150  0.22234  0.58277  1.0000
  C   C19       1.0  0.97262  0.57706  0.35989  1.0000
  C   C20       1.0  0.02739  0.42294  0.64012  1.0000
  N   N1        1.0  0.69786  0.91993  0.69242  1.0000
  N   N2        1.0  0.30214  0.08007  0.30758  1.0000
  N   N3        1.0  0.87372  0.09754  0.80804  1.0000
  N   N4        1.0  0.12628  0.90245  0.19195  1.0000
  Cl  Cl1       1.0  0.20643  0.40203  0.09489  1.0000
  Cl  Cl2       1.0  0.79356  0.59797  0.90511  1.0000
  O   O1        1.0  0.82110  0.22040  0.34152  1.0000
  O   O2        1.0  0.17891  0.77961  0.65848  1.0000
  O   O3        1.0  0.48036  0.38609  0.38466  1.0000
  O   O4        1.0  0.51963  0.61392  0.61535  1.0000
  O   O5        1.0  0.68256  0.88400  0.41835  1.0000
  O   O6        1.0  0.31746  0.11600  0.58165  1.0000
  O   O7        1.0  0.96512  0.84064  0.46748  1.0000
  O   O8        1.0  0.03490  0.15936  0.53252  1.0000
