data_image0
_chemical_formula_structural       Zn2H34C42N10O10
_chemical_formula_sum              "Zn2 H34 C42 N10 O10"
_cell_length_a       8.39345
_cell_length_b       11.0035
_cell_length_c       11.0923
_cell_angle_alpha    90.0001
_cell_angle_beta     104.422
_cell_angle_gamma    89.9998

_space_group_name_H-M_alt    "P 1"
_space_group_IT_number       1

loop_
  _space_group_symop_operation_xyz
  'x, y, z'

loop_
  _atom_site_type_symbol
  _atom_site_label
  _atom_site_symmetry_multiplicity
  _atom_site_fract_x
  _atom_site_fract_y
  _atom_site_fract_z
  _atom_site_occupancy
  Zn  Zn1       1.0  0.20972  0.34613  0.76906  1.0000
  Zn  Zn2       1.0  0.79028  0.84613  0.23094  1.0000
  H   H1        1.0  0.42884  0.06858  0.99264  1.0000
  H   H2        1.0  0.57116  0.56857  0.00737  1.0000
  H   H3        1.0  0.67327  0.94533  0.97252  1.0000
  H   H4        1.0  0.32674  0.44533  0.02749  1.0000
  H   H5        1.0  0.89306  0.04844  0.88678  1.0000
  H   H6        1.0  0.10695  0.54844  0.11323  1.0000
  H   H7        1.0  0.34951  0.61339  0.73212  1.0000
  H   H8        1.0  0.65050  0.11340  0.26788  1.0000
  H   H9        1.0  0.18969  0.82061  0.79110  1.0000
  H   H10       1.0  0.81031  0.32061  0.20890  1.0000
  H   H11       1.0  0.90896  0.50880  0.82288  1.0000
  H   H12       1.0  0.09105  0.00880  0.17712  1.0000
  H   H13       1.0  0.95640  0.82674  0.91965  1.0000
  H   H14       1.0  0.04360  0.32674  0.08035  1.0000
  H   H15       1.0  0.82510  0.70018  0.90409  1.0000
  H   H16       1.0  0.17490  0.20018  0.09591  1.0000
  H   H17       1.0  0.94899  0.90618  0.66397  1.0000
  H   H18       1.0  0.05100  0.40617  0.33603  1.0000
  H   H19       1.0  0.74293  0.01737  0.50436  1.0000
  H   H20       1.0  0.25706  0.51736  0.49564  1.0000
  H   H21       1.0  0.35359  0.86000  0.64129  1.0000
  H   H22       1.0  0.64640  0.36001  0.35871  1.0000
  H   H23       1.0  0.56135  0.74795  0.80335  1.0000
  H   H24       1.0  0.43865  0.24795  0.19665  1.0000
  H   H25       1.0  0.33626  0.95747  0.39898  1.0000
  H   H26       1.0  0.66374  0.45747  0.60102  1.0000
  H   H27       1.0  0.47301  0.08282  0.41783  1.0000
  H   H28       1.0  0.52698  0.58282  0.58217  1.0000
  H   H29       1.0  0.45463  0.23211  0.61657  1.0000
  H   H30       1.0  0.54536  0.73210  0.38342  1.0000
  H   H31       1.0  0.07716  0.98314  0.45681  1.0000
  H   H32       1.0  0.92283  0.48314  0.54320  1.0000
  H   H33       1.0  0.95499  0.15898  0.59553  1.0000
  H   H34       1.0  0.04500  0.65898  0.40447  1.0000
  C   C1        1.0  0.52515  0.10375  0.95193  1.0000
  C   C2        1.0  0.47486  0.60375  0.04807  1.0000
  C   C3        1.0  0.66257  0.03948  0.94141  1.0000
  C   C4        1.0  0.33743  0.53947  0.05859  1.0000
  C   C5        1.0  0.78188  0.09609  0.89324  1.0000
  C   C6        1.0  0.21812  0.59609  0.10676  1.0000
  C   C7        1.0  0.75736  0.21586  0.85143  1.0000
  C   C8        1.0  0.24264  0.71586  0.14857  1.0000
  C   C9        1.0  0.61706  0.27863  0.86292  1.0000
  C   C10       1.0  0.38294  0.77863  0.13707  1.0000
  C   C11       1.0  0.87512  0.27455  0.78510  1.0000
  C   C12       1.0  0.12488  0.77455  0.21489  1.0000
  C   C13       1.0  0.57982  0.40849  0.81994  1.0000
  C   C14       1.0  0.42020  0.90849  0.18006  1.0000
  C   C15       1.0  0.23344  0.62379  0.75685  1.0000
  C   C16       1.0  0.76656  0.12379  0.24316  1.0000
  C   C17       1.0  0.15568  0.72544  0.78571  1.0000
  C   C18       1.0  0.84433  0.22544  0.21430  1.0000
  C   C19       1.0  0.00860  0.56256  0.80393  1.0000
  C   C20       1.0  0.99141  0.06256  0.19607  1.0000
  C   C21       1.0  0.88997  0.75919  0.85259  1.0000
  C   C22       1.0  0.11002  0.25919  0.14741  1.0000
  C   C23       1.0  0.76871  0.81978  0.74583  1.0000
  C   C24       1.0  0.23129  0.31979  0.25417  1.0000
  C   C25       1.0  0.81877  0.89511  0.66040  1.0000
  C   C26       1.0  0.18123  0.39511  0.33960  1.0000
  C   C27       1.0  0.70308  0.95886  0.57066  1.0000
  C   C28       1.0  0.29692  0.45886  0.42934  1.0000
  C   C29       1.0  0.53504  0.94888  0.56403  1.0000
  C   C30       1.0  0.46495  0.44889  0.43597  1.0000
  C   C31       1.0  0.48457  0.87071  0.64706  1.0000
  C   C32       1.0  0.51543  0.37071  0.35293  1.0000
  C   C33       1.0  0.60016  0.80705  0.73699  1.0000
  C   C34       1.0  0.39984  0.30705  0.26301  1.0000
  C   C35       1.0  0.41127  0.01963  0.46755  1.0000
  C   C36       1.0  0.58873  0.51963  0.53245  1.0000
  C   C37       1.0  0.33514  0.18833  0.59467  1.0000
  C   C38       1.0  0.66486  0.68833  0.40533  1.0000
  C   C39       1.0  0.13427  0.05984  0.51242  1.0000
  C   C40       1.0  0.86573  0.55984  0.48758  1.0000
  C   C41       1.0  0.07673  0.14571  0.58098  1.0000
  C   C42       1.0  0.92327  0.64571  0.41901  1.0000
  N   N1        1.0  0.20345  0.22512  0.63217  1.0000
  N   N2        1.0  0.79654  0.72511  0.36783  1.0000
  N   N3        1.0  0.14075  0.52258  0.76902  1.0000
  N   N4        1.0  0.85926  0.02258  0.23098  1.0000
  N   N5        1.0  0.01396  0.68497  0.81489  1.0000
  N   N6        1.0  0.98605  0.18497  0.18511  1.0000
  N   N7        1.0  0.29731  0.08854  0.52212  1.0000
  N   N8        1.0  0.70269  0.58854  0.47788  1.0000
  N   N9        1.0  0.50480  0.22138  0.91370  1.0000
  N   N10       1.0  0.49520  0.72137  0.08630  1.0000
  O   O1        1.0  0.37266  0.28048  0.92959  1.0000
  O   O2        1.0  0.62734  0.78048  0.07040  1.0000
  O   O3        1.0  0.44558  0.42399  0.73775  1.0000
  O   O4        1.0  0.55442  0.92398  0.26224  1.0000
  O   O5        1.0  0.68439  0.48757  0.86752  1.0000
  O   O6        1.0  0.31561  0.98758  0.13248  1.0000
  O   O7        1.0  0.81680  0.31190  0.67608  1.0000
  O   O8        1.0  0.18321  0.81190  0.32392  1.0000
  O   O9        1.0  0.02631  0.27623  0.84636  1.0000
  O   O10       1.0  0.97369  0.77623  0.15364  1.0000
