data_image0
_chemical_formula_structural       Mg2B4H32C16N8
_chemical_formula_sum              "Mg2 B4 H32 C16 N8"
_cell_length_a       7.41165
_cell_length_b       7.41163
_cell_length_c       10.3964
_cell_angle_alpha    89.9998
_cell_angle_beta     90.0002
_cell_angle_gamma    91.6738

_space_group_name_H-M_alt    "P 1"
_space_group_IT_number       1

loop_
  _space_group_symop_operation_xyz
  'x, y, z'

loop_
  _atom_site_type_symbol
  _atom_site_label
  _atom_site_symmetry_multiplicity
  _atom_site_fract_x
  _atom_site_fract_y
  _atom_site_fract_z
  _atom_site_occupancy
  Mg  Mg1       1.0  0.25000  0.75000  0.75000  1.0000
  Mg  Mg2       1.0  0.75000  0.25000  0.25000  1.0000
  B   B1        1.0  0.49500  0.50500  0.75000  1.0000
  B   B2        1.0  0.00500  0.99500  0.75000  1.0000
  B   B3        1.0  0.50500  0.49500  0.25000  1.0000
  B   B4        1.0  0.99500  0.00501  0.25000  1.0000
  H   H1        1.0  0.85177  0.61250  0.80939  1.0000
  H   H2        1.0  0.64823  0.88750  0.80939  1.0000
  H   H3        1.0  0.11249  0.35178  0.69061  1.0000
  H   H4        1.0  0.38750  0.14823  0.69061  1.0000
  H   H5        1.0  0.14823  0.38750  0.19061  1.0000
  H   H6        1.0  0.35176  0.11250  0.19061  1.0000
  H   H7        1.0  0.88750  0.64824  0.30939  1.0000
  H   H8        1.0  0.61252  0.85176  0.30939  1.0000
  H   H9        1.0  0.32683  0.53343  0.01404  1.0000
  H   H10       1.0  0.17318  0.96656  0.01403  1.0000
  H   H11       1.0  0.03344  0.82684  0.48596  1.0000
  H   H12       1.0  0.46657  0.67316  0.48597  1.0000
  H   H13       1.0  0.67318  0.46656  0.98597  1.0000
  H   H14       1.0  0.82682  0.03344  0.98597  1.0000
  H   H15       1.0  0.96655  0.17320  0.51404  1.0000
  H   H16       1.0  0.53344  0.32681  0.51403  1.0000
  H   H17       1.0  0.48257  0.62356  0.83122  1.0000
  H   H18       1.0  0.01743  0.87643  0.83122  1.0000
  H   H19       1.0  0.12357  0.98258  0.66877  1.0000
  H   H20       1.0  0.37643  0.51742  0.66877  1.0000
  H   H21       1.0  0.51742  0.37643  0.16877  1.0000
  H   H22       1.0  0.98257  0.12357  0.16877  1.0000
  H   H23       1.0  0.87643  0.01743  0.33122  1.0000
  H   H24       1.0  0.62357  0.48257  0.33122  1.0000
  H   H25       1.0  0.47669  0.36076  0.80589  1.0000
  H   H26       1.0  0.02331  0.13924  0.80589  1.0000
  H   H27       1.0  0.86076  0.97669  0.69410  1.0000
  H   H28       1.0  0.63924  0.52332  0.69410  1.0000
  H   H29       1.0  0.52332  0.63924  0.19410  1.0000
  H   H30       1.0  0.97668  0.86076  0.19410  1.0000
  H   H31       1.0  0.13924  0.02332  0.30589  1.0000
  H   H32       1.0  0.36076  0.47668  0.30589  1.0000
  C   C1        1.0  0.91978  0.56214  0.89441  1.0000
  C   C2        1.0  0.58023  0.93786  0.89441  1.0000
  C   C3        1.0  0.06214  0.41979  0.60559  1.0000
  C   C4        1.0  0.43786  0.08021  0.60559  1.0000
  C   C5        1.0  0.08023  0.43785  0.10560  1.0000
  C   C6        1.0  0.41977  0.06214  0.10560  1.0000
  C   C7        1.0  0.93785  0.58026  0.39440  1.0000
  C   C8        1.0  0.56216  0.91977  0.39441  1.0000
  C   C9        1.0  0.18052  0.51888  0.00694  1.0000
  C   C10       1.0  0.31946  0.98112  0.00694  1.0000
  C   C11       1.0  0.01888  0.68053  0.49306  1.0000
  C   C12       1.0  0.48113  0.81947  0.49307  1.0000
  C   C13       1.0  0.81946  0.48112  0.99306  1.0000
  C   C14       1.0  0.68052  0.01888  0.99306  1.0000
  C   C15       1.0  0.98111  0.31946  0.50695  1.0000
  C   C16       1.0  0.51889  0.18052  0.50694  1.0000
  N   N1        1.0  0.10048  0.58176  0.90085  1.0000
  N   N2        1.0  0.39953  0.91824  0.90084  1.0000
  N   N3        1.0  0.08176  0.60049  0.59916  1.0000
  N   N4        1.0  0.41825  0.89952  0.59915  1.0000
  N   N5        1.0  0.89952  0.41823  0.09916  1.0000
  N   N6        1.0  0.60048  0.08176  0.09916  1.0000
  N   N7        1.0  0.91823  0.39953  0.40084  1.0000
  N   N8        1.0  0.58177  0.10046  0.40084  1.0000
