data_image0
_chemical_formula_structural       Cu6H40C28I4N14
_chemical_formula_sum              "Cu6 H40 C28 I4 N14"
_cell_length_a       7.88516
_cell_length_b       11.3862
_cell_length_c       12.5964
_cell_angle_alpha    78.0004
_cell_angle_beta     71.7908
_cell_angle_gamma    69.7658

_space_group_name_H-M_alt    "P 1"
_space_group_IT_number       1

loop_
  _space_group_symop_operation_xyz
  'x, y, z'

loop_
  _atom_site_type_symbol
  _atom_site_label
  _atom_site_symmetry_multiplicity
  _atom_site_fract_x
  _atom_site_fract_y
  _atom_site_fract_z
  _atom_site_occupancy
  Cu  Cu1       1.0  0.19986  0.24998  0.74992  1.0000
  Cu  Cu2       1.0  0.80014  0.75002  0.25008  1.0000
  Cu  Cu3       1.0  0.41487  0.39877  0.71092  1.0000
  Cu  Cu4       1.0  0.52408  0.10158  0.78940  1.0000
  Cu  Cu5       1.0  0.58513  0.60122  0.28907  1.0000
  Cu  Cu6       1.0  0.47592  0.89843  0.21060  1.0000
  H   H1        1.0  0.83984  0.79106  0.76920  1.0000
  H   H2        1.0  0.40058  0.70873  0.73087  1.0000
  H   H3        1.0  0.16017  0.20893  0.23081  1.0000
  H   H4        1.0  0.59941  0.29127  0.26914  1.0000
  H   H5        1.0  0.05297  0.56922  0.86580  1.0000
  H   H6        1.0  0.48838  0.93059  0.63430  1.0000
  H   H7        1.0  0.94704  0.43077  0.13420  1.0000
  H   H8        1.0  0.51160  0.06942  0.36570  1.0000
  H   H9        1.0  0.29151  0.60546  0.51447  1.0000
  H   H10       1.0  0.41116  0.89479  0.98577  1.0000
  H   H11       1.0  0.70849  0.39454  0.48553  1.0000
  H   H12       1.0  0.58884  0.10521  0.01423  1.0000
  H   H13       1.0  0.15696  0.93002  0.55901  1.0000
  H   H14       1.0  0.64581  0.57004  0.94076  1.0000
  H   H15       1.0  0.84304  0.06997  0.44100  1.0000
  H   H16       1.0  0.35419  0.42997  0.05924  1.0000
  H   H17       1.0  0.91376  0.98504  0.62759  1.0000
  H   H18       1.0  0.52561  0.51502  0.87248  1.0000
  H   H19       1.0  0.08624  0.01495  0.37242  1.0000
  H   H20       1.0  0.47439  0.48498  0.12752  1.0000
  H   H21       1.0  0.96062  0.46206  0.59100  1.0000
  H   H22       1.0  0.01359  0.03826  0.90896  1.0000
  H   H23       1.0  0.03938  0.53794  0.40900  1.0000
  H   H24       1.0  0.98641  0.96175  0.09103  1.0000
  H   H25       1.0  0.85026  0.52158  0.72267  1.0000
  H   H26       1.0  0.09446  0.97869  0.77727  1.0000
  H   H27       1.0  0.14975  0.47843  0.27732  1.0000
  H   H28       1.0  0.90554  0.02131  0.22272  1.0000
  H   H29       1.0  0.71189  0.53088  0.63115  1.0000
  H   H30       1.0  0.87396  0.96929  0.86870  1.0000
  H   H31       1.0  0.28812  0.46912  0.36884  1.0000
  H   H32       1.0  0.12605  0.03071  0.13130  1.0000
  H   H33       1.0  0.84675  0.84108  0.53281  1.0000
  H   H34       1.0  0.22054  0.65901  0.96742  1.0000
  H   H35       1.0  0.15325  0.15891  0.46719  1.0000
  H   H36       1.0  0.77945  0.34100  0.03258  1.0000
  H   H37       1.0  0.08245  0.79785  0.45078  1.0000
  H   H38       1.0  0.33137  0.70213  0.04938  1.0000
  H   H39       1.0  0.91755  0.20215  0.54923  1.0000
  H   H40       1.0  0.66863  0.29787  0.95062  1.0000
  C   C1        1.0  0.96479  0.71916  0.73195  1.0000
  C   C2        1.0  0.41615  0.78073  0.76819  1.0000
  C   C3        1.0  0.03521  0.28083  0.26805  1.0000
  C   C4        1.0  0.58384  0.21927  0.23181  1.0000
  C   C5        1.0  0.07194  0.60973  0.77871  1.0000
  C   C6        1.0  0.46061  0.89017  0.72143  1.0000
  C   C7        1.0  0.92806  0.39026  0.22129  1.0000
  C   C8        1.0  0.53938  0.10983  0.27857  1.0000
  C   C9        1.0  0.81428  0.34686  0.71282  1.0000
  C   C10       1.0  0.87394  0.15336  0.78704  1.0000
  C   C11       1.0  0.18572  0.65315  0.28718  1.0000
  C   C12       1.0  0.12606  0.84664  0.21296  1.0000
  C   C13       1.0  0.19863  0.62228  0.59755  1.0000
  C   C14       1.0  0.41830  0.87788  0.90265  1.0000
  C   C15       1.0  0.80137  0.37771  0.40245  1.0000
  C   C16       1.0  0.58170  0.12213  0.09735  1.0000
  C   C17       1.0  0.01498  0.94994  0.54964  1.0000
  C   C18       1.0  0.51431  0.55009  0.95038  1.0000
  C   C19       1.0  0.98502  0.05005  0.45037  1.0000
  C   C20       1.0  0.48569  0.44991  0.04962  1.0000
  C   C21       1.0  0.83422  0.47240  0.66174  1.0000
  C   C22       1.0  0.96835  0.02782  0.83817  1.0000
  C   C23       1.0  0.16578  0.52760  0.33826  1.0000
  C   C24       1.0  0.03165  0.97218  0.16183  1.0000
  C   C25       1.0  0.99182  0.82835  0.53227  1.0000
  C   C26       1.0  0.35243  0.67166  0.96790  1.0000
  C   C27       1.0  0.00818  0.17164  0.46773  1.0000
  C   C28       1.0  0.64756  0.32835  0.03210  1.0000
  I   I1        1.0  0.43320  0.22565  0.55933  1.0000
  I   I2        1.0  0.21743  0.27422  0.94085  1.0000
  I   I3        1.0  0.56680  0.77435  0.44066  1.0000
  I   I4        1.0  0.78258  0.72577  0.05914  1.0000
  N   N1        1.0  0.66195  0.31213  0.72679  1.0000
  N   N2        1.0  0.70081  0.18807  0.77318  1.0000
  N   N3        1.0  0.33806  0.68787  0.27320  1.0000
  N   N4        1.0  0.29920  0.81193  0.22681  1.0000
  N   N5        1.0  0.04659  0.72526  0.61749  1.0000
  N   N6        1.0  0.38937  0.77476  0.88270  1.0000
  N   N7        1.0  0.95342  0.27473  0.38251  1.0000
  N   N8        1.0  0.61062  0.22524  0.11731  1.0000
  N   N9        1.0  0.94907  0.25011  0.74987  1.0000
  N   N10       1.0  0.05094  0.74989  0.25013  1.0000
  N   N11       1.0  0.21785  0.54991  0.69392  1.0000
  N   N12       1.0  0.46169  0.95016  0.80627  1.0000
  N   N13       1.0  0.78214  0.45009  0.30608  1.0000
  N   N14       1.0  0.53831  0.04985  0.19373  1.0000
