data_image0
_chemical_formula_structural       Cu2H4C12N4O8
_chemical_formula_sum              "Cu2 H4 C12 N4 O8"
_cell_length_a       5.21052
_cell_length_b       6.7126
_cell_length_c       10.1409
_cell_angle_alpha    87.3465
_cell_angle_beta     80.6323
_cell_angle_gamma    71.3187

_space_group_name_H-M_alt    "P 1"
_space_group_IT_number       1

loop_
  _space_group_symop_operation_xyz
  'x, y, z'

loop_
  _atom_site_type_symbol
  _atom_site_label
  _atom_site_symmetry_multiplicity
  _atom_site_fract_x
  _atom_site_fract_y
  _atom_site_fract_z
  _atom_site_occupancy
  Cu  Cu1       1.0  1.00000  0.00000  1.00000  1.0000
  Cu  Cu2       1.0  0.00000  0.50000  0.50000  1.0000
  H   H1        1.0  0.82037  0.35955  0.79307  1.0000
  H   H2        1.0  0.17963  0.64045  0.20693  1.0000
  H   H3        1.0  0.79471  0.97162  0.65433  1.0000
  H   H4        1.0  0.20529  0.02838  0.34568  1.0000
  C   C1        1.0  0.03361  0.26884  0.75938  1.0000
  C   C2        1.0  0.96638  0.73116  0.24062  1.0000
  C   C3        1.0  0.43087  0.21168  0.60485  1.0000
  C   C4        1.0  0.56914  0.78831  0.39515  1.0000
  C   C5        1.0  0.57762  0.05708  0.68426  1.0000
  C   C6        1.0  0.42238  0.94292  0.31574  1.0000
  C   C7        1.0  0.42869  0.00637  0.80011  1.0000
  C   C8        1.0  0.57131  0.99363  0.19989  1.0000
  C   C9        1.0  0.54979  0.83151  0.89415  1.0000
  C   C10       1.0  0.45021  0.16849  0.10585  1.0000
  C   C11       1.0  0.55296  0.27220  0.46926  1.0000
  C   C12       1.0  0.44704  0.72780  0.53075  1.0000
  N   N1        1.0  0.16022  0.11250  0.83597  1.0000
  N   N2        1.0  0.83977  0.88750  0.16403  1.0000
  N   N3        1.0  0.16125  0.31517  0.64271  1.0000
  N   N4        1.0  0.83875  0.68483  0.35730  1.0000
  O   O1        1.0  0.79986  0.73751  0.87576  1.0000
  O   O2        1.0  0.20014  0.26249  0.12424  1.0000
  O   O3        1.0  0.37256  0.80132  0.99231  1.0000
  O   O4        1.0  0.62744  0.19868  0.00769  1.0000
  O   O5        1.0  0.37609  0.39520  0.40089  1.0000
  O   O6        1.0  0.62391  0.60480  0.59911  1.0000
  O   O7        1.0  0.80470  0.20392  0.43211  1.0000
  O   O8        1.0  0.19531  0.79608  0.56789  1.0000
