data_image0
_chemical_formula_structural       Cu2H44C32S4N12
_chemical_formula_sum              "Cu2 H44 C32 S4 N12"
_cell_length_a       7.97759
_cell_length_b       8.49304
_cell_length_c       13.8002
_cell_angle_alpha    90.0007
_cell_angle_beta     89.9981
_cell_angle_gamma    92.5196

_space_group_name_H-M_alt    "P 1"
_space_group_IT_number       1

loop_
  _space_group_symop_operation_xyz
  'x, y, z'

loop_
  _atom_site_type_symbol
  _atom_site_label
  _atom_site_symmetry_multiplicity
  _atom_site_fract_x
  _atom_site_fract_y
  _atom_site_fract_z
  _atom_site_occupancy
  Cu  Cu1       1.0  0.50000  1.00000  0.00000  1.0000
  Cu  Cu2       1.0  0.50000  0.50000  0.50000  1.0000
  H   H1        1.0  0.98613  0.27897  0.74752  1.0000
  H   H2        1.0  0.01387  0.22104  0.24751  1.0000
  H   H3        1.0  0.01386  0.72103  0.25248  1.0000
  H   H4        1.0  0.98613  0.77896  0.75248  1.0000
  H   H5        1.0  0.99054  0.13349  0.65425  1.0000
  H   H6        1.0  0.00947  0.36652  0.15425  1.0000
  H   H7        1.0  0.00945  0.86651  0.34575  1.0000
  H   H8        1.0  0.99055  0.63349  0.84575  1.0000
  H   H9        1.0  0.09786  0.10506  0.76502  1.0000
  H   H10       1.0  0.90214  0.39496  0.26502  1.0000
  H   H11       1.0  0.90213  0.89495  0.23498  1.0000
  H   H12       1.0  0.09786  0.60504  0.73497  1.0000
  H   H13       1.0  0.70794  0.94428  0.64660  1.0000
  H   H14       1.0  0.29207  0.55573  0.14660  1.0000
  H   H15       1.0  0.29205  0.05572  0.35340  1.0000
  H   H16       1.0  0.70794  0.44427  0.85340  1.0000
  H   H17       1.0  0.41212  0.75077  0.84869  1.0000
  H   H18       1.0  0.58788  0.74924  0.34870  1.0000
  H   H19       1.0  0.58788  0.24923  0.15131  1.0000
  H   H20       1.0  0.41212  0.25076  0.65131  1.0000
  H   H21       1.0  0.44872  0.74265  0.72132  1.0000
  H   H22       1.0  0.55128  0.75735  0.22133  1.0000
  H   H23       1.0  0.55128  0.25735  0.27868  1.0000
  H   H24       1.0  0.44872  0.24264  0.77868  1.0000
  H   H25       1.0  0.32648  0.89265  0.76908  1.0000
  H   H26       1.0  0.67353  0.60735  0.26908  1.0000
  H   H27       1.0  0.67352  0.10735  0.23092  1.0000
  H   H28       1.0  0.32647  0.39264  0.73093  1.0000
  H   H29       1.0  0.77061  0.23991  0.97773  1.0000
  H   H30       1.0  0.22939  0.26010  0.47773  1.0000
  H   H31       1.0  0.22940  0.76009  0.02227  1.0000
  H   H32       1.0  0.77058  0.73991  0.52228  1.0000
  H   H33       1.0  0.96237  0.24012  0.91354  1.0000
  H   H34       1.0  0.03763  0.25988  0.41355  1.0000
  H   H35       1.0  0.03763  0.75988  0.08645  1.0000
  H   H36       1.0  0.96235  0.74013  0.58645  1.0000
  H   H37       1.0  0.99304  0.13067  0.07662  1.0000
  H   H38       1.0  0.00696  0.36934  0.57662  1.0000
  H   H39       1.0  0.00697  0.86933  0.92338  1.0000
  H   H40       1.0  0.99303  0.63067  0.42338  1.0000
  H   H41       1.0  0.83358  0.98339  0.05589  1.0000
  H   H42       1.0  0.16640  0.51661  0.55589  1.0000
  H   H43       1.0  0.16643  0.01660  0.94411  1.0000
  H   H44       1.0  0.83357  0.48340  0.44411  1.0000
  C   C1        1.0  0.64188  0.68437  0.03252  1.0000
  C   C2        1.0  0.35811  0.81562  0.53253  1.0000
  C   C3        1.0  0.35812  0.31563  0.96748  1.0000
  C   C4        1.0  0.64188  0.18437  0.46748  1.0000
  C   C5        1.0  0.82866  0.07074  0.77030  1.0000
  C   C6        1.0  0.17134  0.42926  0.27030  1.0000
  C   C7        1.0  0.17134  0.92926  0.22970  1.0000
  C   C8        1.0  0.82865  0.57074  0.72970  1.0000
  C   C9        1.0  0.98427  0.15179  0.73269  1.0000
  C   C10       1.0  0.01574  0.34822  0.23269  1.0000
  C   C11       1.0  0.01572  0.84822  0.26730  1.0000
  C   C12       1.0  0.98427  0.65178  0.76730  1.0000
  C   C13       1.0  0.70979  0.97309  0.72318  1.0000
  C   C14       1.0  0.29022  0.52692  0.22318  1.0000
  C   C15       1.0  0.29021  0.02691  0.27682  1.0000
  C   C16       1.0  0.70979  0.47309  0.77682  1.0000
  C   C17       1.0  0.59126  0.92449  0.79377  1.0000
  C   C18       1.0  0.40875  0.57551  0.29378  1.0000
  C   C19       1.0  0.40874  0.07551  0.20623  1.0000
  C   C20       1.0  0.59125  0.42449  0.70623  1.0000
  C   C21       1.0  0.43615  0.82184  0.78332  1.0000
  C   C22       1.0  0.56386  0.67816  0.28332  1.0000
  C   C23       1.0  0.56385  0.17816  0.21669  1.0000
  C   C24       1.0  0.43614  0.32183  0.71669  1.0000
  C   C25       1.0  0.86206  0.16319  0.94463  1.0000
  C   C26       1.0  0.13794  0.33681  0.44464  1.0000
  C   C27       1.0  0.13795  0.83681  0.05536  1.0000
  C   C28       1.0  0.86204  0.66319  0.55536  1.0000
  C   C29       1.0  0.93519  0.05439  0.02042  1.0000
  C   C30       1.0  0.06480  0.44561  0.52042  1.0000
  C   C31       1.0  0.06482  0.94560  0.97958  1.0000
  C   C32       1.0  0.93518  0.55440  0.47958  1.0000
  S   S1        1.0  0.78110  0.55524  0.04648  1.0000
  S   S2        1.0  0.21892  0.94477  0.54650  1.0000
  S   S3        1.0  0.21892  0.44475  0.95351  1.0000
  S   S4        1.0  0.78109  0.05523  0.45351  1.0000
  N   N1        1.0  0.63562  0.99053  0.87930  1.0000
  N   N2        1.0  0.36439  0.50947  0.37930  1.0000
  N   N3        1.0  0.36439  0.00946  0.12070  1.0000
  N   N4        1.0  0.63561  0.49053  0.62071  1.0000
  N   N5        1.0  0.77925  0.07962  0.86452  1.0000
  N   N6        1.0  0.22076  0.42038  0.36452  1.0000
  N   N7        1.0  0.22075  0.92038  0.13548  1.0000
  N   N8        1.0  0.77923  0.57962  0.63548  1.0000
  N   N9        1.0  0.53500  0.77750  0.02370  1.0000
  N   N10       1.0  0.46498  0.72248  0.52371  1.0000
  N   N11       1.0  0.46502  0.22248  0.97630  1.0000
  N   N12       1.0  0.53501  0.27752  0.47629  1.0000
