data_image0
_chemical_formula_structural       Zn2H32C34N8O8
_chemical_formula_sum              "Zn2 H32 C34 N8 O8"
_cell_length_a       9.01858
_cell_length_b       10.3406
_cell_length_c       11.1696
_cell_angle_alpha    82.8179
_cell_angle_beta     87.273
_cell_angle_gamma    75.9141

_space_group_name_H-M_alt    "P 1"
_space_group_IT_number       1

loop_
  _space_group_symop_operation_xyz
  'x, y, z'

loop_
  _atom_site_type_symbol
  _atom_site_label
  _atom_site_symmetry_multiplicity
  _atom_site_fract_x
  _atom_site_fract_y
  _atom_site_fract_z
  _atom_site_occupancy
  Zn  Zn1       1.0  0.12440  0.39568  0.18884  1.0000
  Zn  Zn2       1.0  0.87560  0.60432  0.81116  1.0000
  H   H1        1.0  0.75176  0.19384  0.10951  1.0000
  H   H2        1.0  0.24823  0.80616  0.89050  1.0000
  H   H3        1.0  0.17049  0.90177  0.19962  1.0000
  H   H4        1.0  0.82951  0.09824  0.80038  1.0000
  H   H5        1.0  0.77823  0.77244  0.10356  1.0000
  H   H6        1.0  0.22178  0.22756  0.89644  1.0000
  H   H7        1.0  0.62829  0.00952  0.07561  1.0000
  H   H8        1.0  0.37171  0.99048  0.92439  1.0000
  H   H9        1.0  0.19864  0.57060  0.94648  1.0000
  H   H10       1.0  0.80136  0.42940  0.05352  1.0000
  H   H11       1.0  0.43694  0.19104  0.11018  1.0000
  H   H12       1.0  0.56306  0.80896  0.88982  1.0000
  H   H13       1.0  0.60001  0.26663  0.90115  1.0000
  H   H14       1.0  0.39999  0.73336  0.09885  1.0000
  H   H15       1.0  0.57020  0.51156  0.78365  1.0000
  H   H16       1.0  0.42980  0.48843  0.21635  1.0000
  H   H17       1.0  0.38206  0.61923  0.78221  1.0000
  H   H18       1.0  0.61794  0.38077  0.21779  1.0000
  H   H19       1.0  0.47074  0.34892  0.67763  1.0000
  H   H20       1.0  0.52926  0.65108  0.32237  1.0000
  H   H21       1.0  0.46847  0.50478  0.59156  1.0000
  H   H22       1.0  0.53153  0.49522  0.40844  1.0000
  H   H23       1.0  0.18534  0.44125  0.72986  1.0000
  H   H24       1.0  0.81466  0.55875  0.27014  1.0000
  H   H25       1.0  0.18945  0.58587  0.62867  1.0000
  H   H26       1.0  0.81055  0.41413  0.37133  1.0000
  H   H27       1.0  0.19706  0.56418  0.39739  1.0000
  H   H28       1.0  0.80294  0.43582  0.60261  1.0000
  H   H29       1.0  0.21741  0.21359  0.64439  1.0000
  H   H30       1.0  0.78259  0.78641  0.35561  1.0000
  H   H31       1.0  0.17598  0.16019  0.40977  1.0000
  H   H32       1.0  0.82402  0.83981  0.59023  1.0000
  C   C1        1.0  0.81528  0.08926  0.12313  1.0000
  C   C2        1.0  0.18472  0.91075  0.87687  1.0000
  C   C3        1.0  0.96861  0.05899  0.15759  1.0000
  C   C4        1.0  0.03139  0.94101  0.84241  1.0000
  C   C5        1.0  0.05130  0.92507  0.17328  1.0000
  C   C6        1.0  0.94870  0.07493  0.82673  1.0000
  C   C7        1.0  0.98299  0.82160  0.15509  1.0000
  C   C8        1.0  0.01701  0.17841  0.84492  1.0000
  C   C9        1.0  0.82996  0.85304  0.12013  1.0000
  C   C10       1.0  0.17004  0.14696  0.87987  1.0000
  C   C11       1.0  0.74660  0.98641  0.10435  1.0000
  C   C12       1.0  0.25339  0.01359  0.89565  1.0000
  C   C13       1.0  0.07474  0.67885  0.17413  1.0000
  C   C14       1.0  0.92526  0.32115  0.82588  1.0000
  C   C15       1.0  0.04867  0.16582  0.17637  1.0000
  C   C16       1.0  0.95133  0.83418  0.82363  1.0000
  C   C17       1.0  0.28557  0.47758  0.96577  1.0000
  C   C18       1.0  0.71443  0.52242  0.03423  1.0000
  C   C19       1.0  0.41424  0.28054  0.04558  1.0000
  C   C20       1.0  0.58576  0.71946  0.95442  1.0000
  C   C21       1.0  0.49295  0.31456  0.94288  1.0000
  C   C22       1.0  0.50705  0.68544  0.05712  1.0000
  C   C23       1.0  0.44796  0.51492  0.78171  1.0000
  C   C24       1.0  0.55204  0.48507  0.21829  1.0000
  C   C25       1.0  0.41488  0.45673  0.66964  1.0000
  C   C26       1.0  0.58512  0.54327  0.33036  1.0000
  C   C27       1.0  0.24389  0.47859  0.64919  1.0000
  C   C28       1.0  0.75611  0.52141  0.35081  1.0000
  C   C29       1.0  0.19599  0.46162  0.43253  1.0000
  C   C30       1.0  0.80401  0.53838  0.56747  1.0000
  C   C31       1.0  0.20745  0.27642  0.55848  1.0000
  C   C32       1.0  0.79255  0.72358  0.44152  1.0000
  C   C33       1.0  0.18532  0.25159  0.44357  1.0000
  C   C34       1.0  0.81468  0.74841  0.55643  1.0000
  N   N1        1.0  0.28575  0.38313  0.05877  1.0000
  N   N2        1.0  0.71425  0.61687  0.94123  1.0000
  N   N3        1.0  0.40943  0.43934  0.89361  1.0000
  N   N4        1.0  0.59057  0.56066  0.10639  1.0000
  N   N5        1.0  0.21361  0.40965  0.54985  1.0000
  N   N6        1.0  0.78639  0.59035  0.45015  1.0000
  N   N7        1.0  0.17834  0.36797  0.36576  1.0000
  N   N8        1.0  0.82166  0.63203  0.63424  1.0000
  O   O1        1.0  0.00329  0.58767  0.15816  1.0000
  O   O2        1.0  0.99671  0.41234  0.84184  1.0000
  O   O3        1.0  0.21170  0.65434  0.20543  1.0000
  O   O4        1.0  0.78830  0.34566  0.79457  1.0000
  O   O5        1.0  0.96808  0.28973  0.16615  1.0000
  O   O6        1.0  0.03192  0.71027  0.83385  1.0000
  O   O7        1.0  0.18799  0.13433  0.20158  1.0000
  O   O8        1.0  0.81201  0.86567  0.79841  1.0000
