data_image0
_chemical_formula_structural       Cd2H32C34N8O8
_chemical_formula_sum              "Cd2 H32 C34 N8 O8"
_cell_length_a       8.74555
_cell_length_b       10.4096
_cell_length_c       11.8594
_cell_angle_alpha    85.7679
_cell_angle_beta     69.0752
_cell_angle_gamma    67.3469

_space_group_name_H-M_alt    "P 1"
_space_group_IT_number       1

loop_
  _space_group_symop_operation_xyz
  'x, y, z'

loop_
  _atom_site_type_symbol
  _atom_site_label
  _atom_site_symmetry_multiplicity
  _atom_site_fract_x
  _atom_site_fract_y
  _atom_site_fract_z
  _atom_site_occupancy
  Cd  Cd1       1.0  0.36063  0.17557  0.13993  1.0000
  Cd  Cd2       1.0  0.63937  0.82443  0.86007  1.0000
  H   H1        1.0  0.27127  0.03829  0.42090  1.0000
  H   H2        1.0  0.72873  0.96172  0.57910  1.0000
  H   H3        1.0  0.94907  0.41989  0.33251  1.0000
  H   H4        1.0  0.05092  0.58011  0.66749  1.0000
  H   H5        1.0  0.77228  0.37241  0.56963  1.0000
  H   H6        1.0  0.22772  0.62758  0.43037  1.0000
  H   H7        1.0  0.06926  0.01276  0.62753  1.0000
  H   H8        1.0  0.93075  0.98724  0.37246  1.0000
  H   H9        1.0  0.84275  0.12653  0.67650  1.0000
  H   H10       1.0  0.15726  0.87346  0.32350  1.0000
  H   H11       1.0  0.91600  0.30942  0.74954  1.0000
  H   H12       1.0  0.08401  0.69058  0.25047  1.0000
  H   H13       1.0  0.14270  0.19412  0.70149  1.0000
  H   H14       1.0  0.85731  0.80588  0.29851  1.0000
  H   H15       1.0  0.83232  0.14141  0.89597  1.0000
  H   H16       1.0  0.16768  0.85859  0.10404  1.0000
  H   H17       1.0  0.05629  0.01999  0.84449  1.0000
  H   H18       1.0  0.94371  0.98001  0.15552  1.0000
  H   H19       1.0  0.23436  0.02232  0.96055  1.0000
  H   H20       1.0  0.76564  0.97768  0.03945  1.0000
  H   H21       1.0  0.81500  0.40664  0.96816  1.0000
  H   H22       1.0  0.18500  0.59336  0.03184  1.0000
  H   H23       1.0  0.98856  0.43690  0.11443  1.0000
  H   H24       1.0  0.01145  0.56310  0.88557  1.0000
  H   H25       1.0  0.57439  0.35868  0.90545  1.0000
  H   H26       1.0  0.42561  0.64131  0.09455  1.0000
  H   H27       1.0  0.39715  0.63313  0.64916  1.0000
  H   H28       1.0  0.60285  0.36687  0.35084  1.0000
  H   H29       1.0  0.35095  0.44277  0.56501  1.0000
  H   H30       1.0  0.64905  0.55722  0.43499  1.0000
  H   H31       1.0  0.41144  0.21258  0.65623  1.0000
  H   H32       1.0  0.58856  0.78742  0.34378  1.0000
  C   C1        1.0  0.16080  0.13628  0.42787  1.0000
  C   C2        1.0  0.83920  0.86372  0.57213  1.0000
  C   C3        1.0  0.98994  0.33360  0.38632  1.0000
  C   C4        1.0  0.01006  0.66640  0.61368  1.0000
  C   C5        1.0  0.90065  0.31197  0.50305  1.0000
  C   C6        1.0  0.09935  0.68803  0.49695  1.0000
  C   C7        1.0  0.97868  0.12327  0.64387  1.0000
  C   C8        1.0  0.02132  0.87673  0.35613  1.0000
  C   C9        1.0  0.00589  0.19864  0.73616  1.0000
  C   C10       1.0  0.99411  0.80135  0.26384  1.0000
  C   C11       1.0  0.97114  0.13171  0.85675  1.0000
  C   C12       1.0  0.02886  0.86829  0.14325  1.0000
  C   C13       1.0  0.14387  0.13019  0.98543  1.0000
  C   C14       1.0  0.85613  0.86981  0.01458  1.0000
  C   C15       1.0  0.92537  0.33226  0.99072  1.0000
  C   C16       1.0  0.07464  0.66774  0.00928  1.0000
  C   C17       1.0  0.01277  0.34529  0.06246  1.0000
  C   C18       1.0  0.98724  0.65471  0.93754  1.0000
  C   C19       1.0  0.54044  0.61474  0.82103  1.0000
  C   C20       1.0  0.45955  0.38526  0.17896  1.0000
  C   C21       1.0  0.53240  0.13329  0.84108  1.0000
  C   C22       1.0  0.46760  0.86671  0.15892  1.0000
  C   C23       1.0  0.49292  0.27270  0.78793  1.0000
  C   C24       1.0  0.50708  0.72730  0.21207  1.0000
  C   C25       1.0  0.52508  0.37761  0.83105  1.0000
  C   C26       1.0  0.47492  0.62238  0.16895  1.0000
  C   C27       1.0  0.49320  0.50657  0.78007  1.0000
  C   C28       1.0  0.50680  0.49343  0.21993  1.0000
  C   C29       1.0  0.42510  0.53125  0.68645  1.0000
  C   C30       1.0  0.57490  0.46874  0.31354  1.0000
  C   C31       1.0  0.39729  0.42541  0.64088  1.0000
  C   C32       1.0  0.60270  0.57459  0.35912  1.0000
  C   C33       1.0  0.43138  0.29659  0.69099  1.0000
  C   C34       1.0  0.56862  0.70341  0.30901  1.0000
  N   N1        1.0  0.15123  0.22338  0.34049  1.0000
  N   N2        1.0  0.84877  0.77662  0.65951  1.0000
  N   N3        1.0  0.01089  0.18571  0.52787  1.0000
  N   N4        1.0  0.98911  0.81429  0.47213  1.0000
  N   N5        1.0  0.01046  0.19507  0.94290  1.0000
  N   N6        1.0  0.98954  0.80493  0.05710  1.0000
  N   N7        1.0  0.14849  0.21878  0.05853  1.0000
  N   N8        1.0  0.85151  0.78122  0.94148  1.0000
  O   O1        1.0  0.45375  0.74310  0.81123  1.0000
  O   O2        1.0  0.54624  0.25690  0.18876  1.0000
  O   O3        1.0  0.66867  0.57294  0.85996  1.0000
  O   O4        1.0  0.33132  0.42707  0.14004  1.0000
  O   O5        1.0  0.52322  0.03653  0.78672  1.0000
  O   O6        1.0  0.47678  0.96347  0.21328  1.0000
  O   O7        1.0  0.57757  0.11683  0.93365  1.0000
  O   O8        1.0  0.42244  0.88317  0.06635  1.0000
