data_image0
_chemical_formula_structural       Cd2CuH10C18O14
_chemical_formula_sum              "Cd2 Cu1 H10 C18 O14"
_cell_length_a       6.27781
_cell_length_b       9.32601
_cell_length_c       10.0932
_cell_angle_alpha    64.2819
_cell_angle_beta     77.8401
_cell_angle_gamma    76.4244

_space_group_name_H-M_alt    "P 1"
_space_group_IT_number       1

loop_
  _space_group_symop_operation_xyz
  'x, y, z'

loop_
  _atom_site_type_symbol
  _atom_site_label
  _atom_site_symmetry_multiplicity
  _atom_site_fract_x
  _atom_site_fract_y
  _atom_site_fract_z
  _atom_site_occupancy
  Cd  Cd1       1.0  0.78051  0.57848  0.13998  1.0000
  Cd  Cd2       1.0  0.21950  0.42152  0.86002  1.0000
  Cu  Cu1       1.0  0.50000  0.50000  0.50000  1.0000
  H   H1        1.0  0.30857  0.56074  0.16814  1.0000
  H   H2        1.0  0.69143  0.43925  0.83186  1.0000
  H   H3        1.0  0.28649  0.72782  0.17409  1.0000
  H   H4        1.0  0.71351  0.27217  0.82592  1.0000
  H   H5        1.0  0.70879  0.02350  0.68946  1.0000
  H   H6        1.0  0.29121  0.97650  0.31054  1.0000
  H   H7        1.0  0.83608  0.59141  0.61126  1.0000
  H   H8        1.0  0.16391  0.40859  0.38874  1.0000
  H   H9        1.0  0.78796  0.05583  0.24340  1.0000
  H   H10       1.0  0.21205  0.94417  0.75660  1.0000
  C   C1        1.0  0.74331  0.05863  0.46073  1.0000
  C   C2        1.0  0.25669  0.94137  0.53927  1.0000
  C   C3        1.0  0.73867  0.96541  0.61282  1.0000
  C   C4        1.0  0.26133  0.03460  0.38718  1.0000
  C   C5        1.0  0.77697  0.79687  0.66769  1.0000
  C   C6        1.0  0.22303  0.20313  0.33231  1.0000
  C   C7        1.0  0.80994  0.72223  0.56979  1.0000
  C   C8        1.0  0.19006  0.27777  0.43020  1.0000
  C   C9        1.0  0.81045  0.81513  0.41767  1.0000
  C   C10       1.0  0.18956  0.18487  0.58233  1.0000
  C   C11       1.0  0.78342  0.98349  0.36223  1.0000
  C   C12       1.0  0.21658  0.01651  0.63777  1.0000
  C   C13       1.0  0.70147  0.23872  0.40441  1.0000
  C   C14       1.0  0.29853  0.76128  0.59559  1.0000
  C   C15       1.0  0.78406  0.69942  0.82938  1.0000
  C   C16       1.0  0.21594  0.30058  0.17062  1.0000
  C   C17       1.0  0.83358  0.73443  0.31573  1.0000
  C   C18       1.0  0.16642  0.26557  0.68427  1.0000
  O   O1        1.0  0.64670  0.29317  0.50598  1.0000
  O   O2        1.0  0.35329  0.70683  0.49401  1.0000
  O   O3        1.0  0.72085  0.32026  0.26552  1.0000
  O   O4        1.0  0.27915  0.67974  0.73448  1.0000
  O   O5        1.0  0.92035  0.79370  0.18387  1.0000
  O   O6        1.0  0.07967  0.20629  0.81613  1.0000
  O   O7        1.0  0.76204  0.59628  0.36637  1.0000
  O   O8        1.0  0.23796  0.40372  0.63362  1.0000
  O   O9        1.0  0.83344  0.54366  0.87978  1.0000
  O   O10       1.0  0.16656  0.45634  0.12023  1.0000
  O   O11       1.0  0.74227  0.77304  0.91431  1.0000
  O   O12       1.0  0.25773  0.22696  0.08569  1.0000
  O   O13       1.0  0.38250  0.62299  0.19931  1.0000
  O   O14       1.0  0.61751  0.37700  0.80069  1.0000
