data_image0
_chemical_formula_structural       Hg4H16C16N12Cl4O8
_chemical_formula_sum              "Hg4 H16 C16 N12 Cl4 O8"
_cell_length_a       6.84494
_cell_length_b       8.14886
_cell_length_c       13.3997
_cell_angle_alpha    90.0002
_cell_angle_beta     89.9998
_cell_angle_gamma    110.628

_space_group_name_H-M_alt    "P 1"
_space_group_IT_number       1

loop_
  _space_group_symop_operation_xyz
  'x, y, z'

loop_
  _atom_site_type_symbol
  _atom_site_label
  _atom_site_symmetry_multiplicity
  _atom_site_fract_x
  _atom_site_fract_y
  _atom_site_fract_z
  _atom_site_occupancy
  Hg  Hg1       1.0  1.00000  0.50000  0.50000  1.0000
  Hg  Hg2       1.0  0.00000  0.00001  0.00000  1.0000
  Hg  Hg3       1.0  1.00000  0.50001  1.00000  1.0000
  Hg  Hg4       1.0  1.00000  1.00000  0.50000  1.0000
  H   H1        1.0  0.92261  0.61263  0.73086  1.0000
  H   H2        1.0  0.07739  0.88737  0.23087  1.0000
  H   H3        1.0  0.07739  0.38736  0.26914  1.0000
  H   H4        1.0  0.92261  0.11263  0.76914  1.0000
  H   H5        1.0  0.41806  0.45563  0.63422  1.0000
  H   H6        1.0  0.58194  0.04437  0.13423  1.0000
  H   H7        1.0  0.58194  0.54437  0.36578  1.0000
  H   H8        1.0  0.41806  0.95564  0.86578  1.0000
  H   H9        1.0  0.57695  0.44232  0.80503  1.0000
  H   H10       1.0  0.42306  0.05768  0.30503  1.0000
  H   H11       1.0  0.42305  0.55767  0.19497  1.0000
  H   H12       1.0  0.57694  0.94232  0.69497  1.0000
  H   H13       1.0  0.41357  0.43647  0.90968  1.0000
  H   H14       1.0  0.58643  0.06354  0.40968  1.0000
  H   H15       1.0  0.58644  0.56353  0.09032  1.0000
  H   H16       1.0  0.41357  0.93646  0.59033  1.0000
  C   C1        1.0  0.06278  0.57992  0.73113  1.0000
  C   C2        1.0  0.93722  0.92008  0.23114  1.0000
  C   C3        1.0  0.93722  0.42008  0.26887  1.0000
  C   C4        1.0  0.06279  0.07992  0.76887  1.0000
  C   C5        1.0  0.31394  0.50126  0.67815  1.0000
  C   C6        1.0  0.68606  0.99874  0.17815  1.0000
  C   C7        1.0  0.68607  0.49874  0.32185  1.0000
  C   C8        1.0  0.31393  0.00126  0.82185  1.0000
  C   C9        1.0  0.49110  0.51401  0.84451  1.0000
  C   C10       1.0  0.50890  0.98599  0.34451  1.0000
  C   C11       1.0  0.50891  0.48599  0.15549  1.0000
  C   C12       1.0  0.49110  0.01401  0.65549  1.0000
  C   C13       1.0  0.64170  0.69406  0.87997  1.0000
  C   C14       1.0  0.35830  0.80593  0.37997  1.0000
  C   C15       1.0  0.35830  0.30594  0.12002  1.0000
  C   C16       1.0  0.64169  0.19407  0.62003  1.0000
  N   N1        1.0  0.33154  0.52755  0.77688  1.0000
  N   N2        1.0  0.66846  0.97244  0.27688  1.0000
  N   N3        1.0  0.66846  0.47244  0.22312  1.0000
  N   N4        1.0  0.33153  0.02755  0.72312  1.0000
  N   N5        1.0  0.17383  0.57820  0.81152  1.0000
  N   N6        1.0  0.82616  0.92180  0.31153  1.0000
  N   N7        1.0  0.82617  0.42180  0.18848  1.0000
  N   N8        1.0  0.17384  0.07820  0.68848  1.0000
  N   N9        1.0  0.14451  0.53390  0.64737  1.0000
  N   N10       1.0  0.85549  0.96610  0.14737  1.0000
  N   N11       1.0  0.85549  0.46610  0.35263  1.0000
  N   N12       1.0  0.14451  0.03391  0.85263  1.0000
  Cl  Cl1       1.0  0.76177  0.23009  0.93763  1.0000
  Cl  Cl2       1.0  0.23823  0.26992  0.43762  1.0000
  Cl  Cl3       1.0  0.23823  0.76991  0.06238  1.0000
  Cl  Cl4       1.0  0.76177  0.73008  0.56238  1.0000
  O   O1        1.0  0.76269  0.68627  0.95158  1.0000
  O   O2        1.0  0.23731  0.81374  0.45159  1.0000
  O   O3        1.0  0.23730  0.31374  0.04841  1.0000
  O   O4        1.0  0.76269  0.18626  0.54841  1.0000
  O   O5        1.0  0.63898  0.83118  0.83898  1.0000
  O   O6        1.0  0.36102  0.66882  0.33899  1.0000
  O   O7        1.0  0.36103  0.16882  0.16100  1.0000
  O   O8        1.0  0.63897  0.33118  0.66101  1.0000
