data_image0
_chemical_formula_structural       Cd4H16C16N12Cl4O8
_chemical_formula_sum              "Cd4 H16 C16 N12 Cl4 O8"
_cell_length_a       6.92344
_cell_length_b       7.96648
_cell_length_c       12.7542
_cell_angle_alpha    90
_cell_angle_beta     90.0002
_cell_angle_gamma    108.649

_space_group_name_H-M_alt    "P 1"
_space_group_IT_number       1

loop_
  _space_group_symop_operation_xyz
  'x, y, z'

loop_
  _atom_site_type_symbol
  _atom_site_label
  _atom_site_symmetry_multiplicity
  _atom_site_fract_x
  _atom_site_fract_y
  _atom_site_fract_z
  _atom_site_occupancy
  Cd  Cd1       1.0  0.95791  0.74107  0.51565  1.0000
  Cd  Cd2       1.0  0.04209  0.75894  0.01565  1.0000
  Cd  Cd3       1.0  0.04209  0.25894  0.48435  1.0000
  Cd  Cd4       1.0  0.95791  0.24106  0.98435  1.0000
  H   H1        1.0  0.58451  0.79098  0.14257  1.0000
  H   H2        1.0  0.41548  0.70902  0.64258  1.0000
  H   H3        1.0  0.41548  0.20902  0.85742  1.0000
  H   H4        1.0  0.58453  0.29097  0.35742  1.0000
  H   H5        1.0  0.07222  0.65065  0.27071  1.0000
  H   H6        1.0  0.92778  0.84935  0.77072  1.0000
  H   H7        1.0  0.92778  0.34935  0.72928  1.0000
  H   H8        1.0  0.07222  0.15065  0.22929  1.0000
  H   H9        1.0  0.40779  0.82096  0.31101  1.0000
  H   H10       1.0  0.59221  0.67904  0.81101  1.0000
  H   H11       1.0  0.59221  0.17904  0.68899  1.0000
  H   H12       1.0  0.40779  0.32097  0.18898  1.0000
  H   H13       1.0  0.54699  0.83290  0.42905  1.0000
  H   H14       1.0  0.45301  0.66710  0.92905  1.0000
  H   H15       1.0  0.45301  0.16711  0.57095  1.0000
  H   H16       1.0  0.54700  0.33290  0.07095  1.0000
  C   C1        1.0  0.68715  0.75310  0.19488  1.0000
  C   C2        1.0  0.31285  0.74691  0.69488  1.0000
  C   C3        1.0  0.31285  0.24690  0.80511  1.0000
  C   C4        1.0  0.68712  0.25310  0.30513  1.0000
  C   C5        1.0  0.93258  0.68291  0.26289  1.0000
  C   C6        1.0  0.06742  0.81709  0.76289  1.0000
  C   C7        1.0  0.06742  0.31709  0.73711  1.0000
  C   C8        1.0  0.93258  0.18290  0.23711  1.0000
  C   C9        1.0  0.48757  0.75035  0.35974  1.0000
  C   C10       1.0  0.51243  0.74965  0.85974  1.0000
  C   C11       1.0  0.51243  0.24965  0.64026  1.0000
  C   C12       1.0  0.48757  0.25035  0.14026  1.0000
  C   C13       1.0  0.34102  0.57090  0.39439  1.0000
  C   C14       1.0  0.65898  0.92910  0.89440  1.0000
  C   C15       1.0  0.65898  0.42911  0.60561  1.0000
  C   C16       1.0  0.34103  0.07091  0.10561  1.0000
  N   N1        1.0  0.86050  0.72171  0.17025  1.0000
  N   N2        1.0  0.13950  0.77830  0.67025  1.0000
  N   N3        1.0  0.13950  0.27829  0.82975  1.0000
  N   N4        1.0  0.86051  0.22170  0.32975  1.0000
  N   N5        1.0  0.81334  0.68900  0.34335  1.0000
  N   N6        1.0  0.18666  0.81100  0.84335  1.0000
  N   N7        1.0  0.18666  0.31100  0.65665  1.0000
  N   N8        1.0  0.81335  0.18900  0.15666  1.0000
  N   N9        1.0  0.65796  0.73474  0.29885  1.0000
  N   N10       1.0  0.34204  0.76526  0.79885  1.0000
  N   N11       1.0  0.34204  0.26526  0.70115  1.0000
  N   N12       1.0  0.65795  0.23474  0.20114  1.0000
  Cl  Cl1       1.0  0.77979  0.97724  0.57430  1.0000
  Cl  Cl2       1.0  0.22020  0.52276  0.07430  1.0000
  Cl  Cl3       1.0  0.22020  0.02276  0.42570  1.0000
  Cl  Cl4       1.0  0.77980  0.47724  0.92570  1.0000
  O   O1        1.0  0.19236  0.57466  0.45359  1.0000
  O   O2        1.0  0.80764  0.92534  0.95359  1.0000
  O   O3        1.0  0.80765  0.42535  0.54641  1.0000
  O   O4        1.0  0.19235  0.07466  0.04640  1.0000
  O   O5        1.0  0.36886  0.43010  0.36534  1.0000
  O   O6        1.0  0.63115  0.06989  0.86535  1.0000
  O   O7        1.0  0.63115  0.56990  0.63466  1.0000
  O   O8        1.0  0.36885  0.93010  0.13466  1.0000
