data_image0
_chemical_formula_structural       Co2H24C8Cl4O8
_chemical_formula_sum              "Co2 H24 C8 Cl4 O8"
_cell_length_a       6.82974
_cell_length_b       7.93945
_cell_length_c       9.09815
_cell_angle_alpha    90.0832
_cell_angle_beta     89.9346
_cell_angle_gamma    115.868

_space_group_name_H-M_alt    "P 1"
_space_group_IT_number       1

loop_
  _space_group_symop_operation_xyz
  'x, y, z'

loop_
  _atom_site_type_symbol
  _atom_site_label
  _atom_site_symmetry_multiplicity
  _atom_site_fract_x
  _atom_site_fract_y
  _atom_site_fract_z
  _atom_site_occupancy
  Co  Co1       1.0  1.00000  0.50000  0.50000  1.0000
  Co  Co2       1.0  0.50000  0.00000  0.00000  1.0000
  H   H1        1.0  0.50282  0.50789  0.71480  1.0000
  H   H2        1.0  0.99330  0.99222  0.21497  1.0000
  H   H3        1.0  0.49717  0.49210  0.28520  1.0000
  H   H4        1.0  0.00673  0.00779  0.78502  1.0000
  H   H5        1.0  0.81124  0.75861  0.39709  1.0000
  H   H6        1.0  0.68925  0.74295  0.89489  1.0000
  H   H7        1.0  0.18874  0.24138  0.60291  1.0000
  H   H8        1.0  0.31077  0.25707  0.10510  1.0000
  H   H9        1.0  0.71636  0.16464  0.40744  1.0000
  H   H10       1.0  0.78303  0.33532  0.90746  1.0000
  H   H11       1.0  0.28365  0.83536  0.59256  1.0000
  H   H12       1.0  0.21697  0.66468  0.09254  1.0000
  H   H13       1.0  0.57432  0.31802  0.68495  1.0000
  H   H14       1.0  0.92440  0.18319  0.18382  1.0000
  H   H15       1.0  0.42567  0.68198  0.31505  1.0000
  H   H16       1.0  0.07562  0.81683  0.81618  1.0000
  H   H17       1.0  0.75061  0.14629  0.57815  1.0000
  H   H18       1.0  0.74892  0.35438  0.07814  1.0000
  H   H19       1.0  0.24939  0.85369  0.42186  1.0000
  H   H20       1.0  0.25107  0.64561  0.92186  1.0000
  H   H21       1.0  0.64354  0.76779  0.54626  1.0000
  H   H22       1.0  0.85343  0.73199  0.04546  1.0000
  H   H23       1.0  0.35645  0.23220  0.45374  1.0000
  H   H24       1.0  0.14658  0.26802  0.95453  1.0000
  C   C1        1.0  0.66818  0.67651  0.46432  1.0000
  C   C2        1.0  0.83141  0.82404  0.96320  1.0000
  C   C3        1.0  0.33181  0.32348  0.53568  1.0000
  C   C4        1.0  0.16861  0.17597  0.03679  1.0000
  C   C5        1.0  0.53145  0.42073  0.63108  1.0000
  C   C6        1.0  0.96711  0.07978  0.13071  1.0000
  C   C7        1.0  0.46853  0.57926  0.36892  1.0000
  C   C8        1.0  0.03290  0.92022  0.86929  1.0000
  Cl  Cl1       1.0  0.95992  0.53416  0.23829  1.0000
  Cl  Cl2       1.0  0.53985  0.96644  0.73809  1.0000
  Cl  Cl3       1.0  0.04007  0.46584  0.76171  1.0000
  Cl  Cl4       1.0  0.46015  0.03356  0.26191  1.0000
  O   O1        1.0  0.71608  0.53966  0.54202  1.0000
  O   O2        1.0  0.78387  0.96179  0.04035  1.0000
  O   O3        1.0  0.28390  0.46032  0.45798  1.0000
  O   O4        1.0  0.21615  0.03822  0.95965  1.0000
  O   O5        1.0  0.82582  0.21350  0.48777  1.0000
  O   O6        1.0  0.67353  0.28692  0.98789  1.0000
  O   O7        1.0  0.17418  0.78650  0.51219  1.0000
  O   O8        1.0  0.32646  0.71309  0.01215  1.0000
