data_image0
_chemical_formula_structural       Co2H16C8Cl4O4
_chemical_formula_sum              "Co2 H16 C8 Cl4 O4"
_cell_length_a       6.43166
_cell_length_b       8.0406
_cell_length_c       8.02114
_cell_angle_alpha    118.294
_cell_angle_beta     96.3733
_cell_angle_gamma    96.6079

_space_group_name_H-M_alt    "P 1"
_space_group_IT_number       1

loop_
  _space_group_symop_operation_xyz
  'x, y, z'

loop_
  _atom_site_type_symbol
  _atom_site_label
  _atom_site_symmetry_multiplicity
  _atom_site_fract_x
  _atom_site_fract_y
  _atom_site_fract_z
  _atom_site_occupancy
  Co  Co1       1.0  0.75669  0.05489  0.95321  1.0000
  Co  Co2       1.0  0.25533  0.95341  0.05497  1.0000
  H   H1        1.0  0.95876  0.20116  0.70262  1.0000
  H   H2        1.0  0.53758  0.29481  0.79744  1.0000
  H   H3        1.0  0.03761  0.79571  0.29619  1.0000
  H   H4        1.0  0.45916  0.70425  0.19968  1.0000
  H   H5        1.0  0.19067  0.32167  0.89149  1.0000
  H   H6        1.0  0.30957  0.10286  0.67685  1.0000
  H   H7        1.0  0.80832  0.67340  0.10562  1.0000
  H   H8        1.0  0.68949  0.89454  0.31873  1.0000
  H   H9        1.0  0.14148  0.47819  0.21842  1.0000
  H   H10       1.0  0.36258  0.78169  0.52030  1.0000
  H   H11       1.0  0.85799  0.51997  0.78281  1.0000
  H   H12       1.0  0.63672  0.22000  0.47805  1.0000
  H   H13       1.0  0.87426  0.47511  0.26199  1.0000
  H   H14       1.0  0.62957  0.73981  0.51973  1.0000
  H   H15       1.0  0.12430  0.52174  0.73767  1.0000
  H   H16       1.0  0.36846  0.25985  0.47743  1.0000
  C   C1        1.0  0.97872  0.48643  0.16734  1.0000
  C   C2        1.0  0.52422  0.83407  0.51021  1.0000
  C   C3        1.0  0.02077  0.51109  0.83329  1.0000
  C   C4        1.0  0.47519  0.16691  0.48760  1.0000
  C   C5        1.0  0.02681  0.32848  0.84262  1.0000
  C   C6        1.0  0.47231  0.15465  0.66925  1.0000
  C   C7        1.0  0.97217  0.66779  0.15590  1.0000
  C   C8        1.0  0.52678  0.84413  0.32728  1.0000
  Cl  Cl1       1.0  0.51695  0.77682  0.88805  1.0000
  Cl  Cl2       1.0  0.98312  0.11679  0.23537  1.0000
  Cl  Cl3       1.0  0.48387  0.23462  0.11756  1.0000
  Cl  Cl4       1.0  0.01766  0.88857  0.77581  1.0000
  O   O1        1.0  0.89949  0.32053  0.97792  1.0000
  O   O2        1.0  0.60472  0.02308  0.67475  1.0000
  O   O3        1.0  0.10196  0.67527  0.02267  1.0000
  O   O4        1.0  0.39671  0.97769  0.32114  1.0000
