data_image0
_chemical_formula_structural       Hg2H22C18N4Cl4O2
_chemical_formula_sum              "Hg2 H22 C18 N4 Cl4 O2"
_cell_length_a       7.95732
_cell_length_b       9.35274
_cell_length_c       9.52328
_cell_angle_alpha    71.0909
_cell_angle_beta     71.6178
_cell_angle_gamma    66.412

_space_group_name_H-M_alt    "P 1"
_space_group_IT_number       1

loop_
  _space_group_symop_operation_xyz
  'x, y, z'

loop_
  _atom_site_type_symbol
  _atom_site_label
  _atom_site_symmetry_multiplicity
  _atom_site_fract_x
  _atom_site_fract_y
  _atom_site_fract_z
  _atom_site_occupancy
  Hg  Hg1       1.0  0.69459  0.33474  0.88697  1.0000
  Hg  Hg2       1.0  0.30542  0.66526  0.11303  1.0000
  H   H1        1.0  0.16645  0.05840  0.35750  1.0000
  H   H2        1.0  0.83355  0.94162  0.64249  1.0000
  H   H3        1.0  0.40718  0.87528  0.51031  1.0000
  H   H4        1.0  0.59282  0.12473  0.48968  1.0000
  H   H5        1.0  0.39388  0.93806  0.75286  1.0000
  H   H6        1.0  0.60612  0.06194  0.24714  1.0000
  H   H7        1.0  0.25323  0.11606  0.92441  1.0000
  H   H8        1.0  0.74677  0.88393  0.07559  1.0000
  H   H9        1.0  0.11489  0.22177  0.12137  1.0000
  H   H10       1.0  0.88511  0.77821  0.87863  1.0000
  H   H11       1.0  0.86933  0.24964  0.18839  1.0000
  H   H12       1.0  0.13068  0.75035  0.81161  1.0000
  H   H13       1.0  0.93221  0.48962  0.17220  1.0000
  H   H14       1.0  0.06780  0.51036  0.82781  1.0000
  H   H15       1.0  0.78645  0.53134  0.04703  1.0000
  H   H16       1.0  0.21355  0.46864  0.95297  1.0000
  H   H17       1.0  0.68168  0.51041  0.38673  1.0000
  H   H18       1.0  0.31832  0.48960  0.61327  1.0000
  H   H19       1.0  0.80850  0.51452  0.51140  1.0000
  H   H20       1.0  0.19149  0.48549  0.48860  1.0000
  H   H21       1.0  0.64899  0.40281  0.58196  1.0000
  H   H22       1.0  0.35100  0.59720  0.41805  1.0000
  C   C1        1.0  0.01887  0.20762  0.52255  1.0000
  C   C2        1.0  0.98113  0.79239  0.47744  1.0000
  C   C3        1.0  0.16200  0.07734  0.46566  1.0000
  C   C4        1.0  0.83800  0.92267  0.53433  1.0000
  C   C5        1.0  0.29579  0.97746  0.54990  1.0000
  C   C6        1.0  0.70422  0.02255  0.45009  1.0000
  C   C7        1.0  0.28758  0.01071  0.68579  1.0000
  C   C8        1.0  0.71242  0.98930  0.31420  1.0000
  C   C9        1.0  0.13724  0.13773  0.73545  1.0000
  C   C10       1.0  0.86277  0.86227  0.26455  1.0000
  C   C11       1.0  0.12348  0.16688  0.88127  1.0000
  C   C12       1.0  0.87652  0.83311  0.11873  1.0000
  C   C13       1.0  0.97538  0.28735  0.09343  1.0000
  C   C14       1.0  0.02463  0.71264  0.90657  1.0000
  C   C15       1.0  0.93048  0.46808  0.06607  1.0000
  C   C16       1.0  0.06953  0.53190  0.93393  1.0000
  C   C17       1.0  0.74999  0.44190  0.48290  1.0000
  C   C18       1.0  0.25001  0.55811  0.51710  1.0000
  N   N1        1.0  0.00302  0.23574  0.65508  1.0000
  N   N2        1.0  0.99698  0.76426  0.34492  1.0000
  N   N3        1.0  0.97154  0.24833  0.95850  1.0000
  N   N4        1.0  0.02846  0.75166  0.04151  1.0000
  Cl  Cl1       1.0  0.54176  0.63061  0.80782  1.0000
  Cl  Cl2       1.0  0.45824  0.36938  0.19218  1.0000
  Cl  Cl3       1.0  0.57888  0.15322  0.83779  1.0000
  Cl  Cl4       1.0  0.42111  0.84680  0.16221  1.0000
  O   O1        1.0  0.89625  0.30483  0.43306  1.0000
  O   O2        1.0  0.10375  0.69518  0.56694  1.0000
