data_image0
_chemical_formula_structural       Ni3H30C18O24
_chemical_formula_sum              "Ni3 H30 C18 O24"
_cell_length_a       6.4206
_cell_length_b       10.6906
_cell_length_c       10.6925
_cell_angle_alpha    75.2088
_cell_angle_beta     73.348
_cell_angle_gamma    73.2534

_space_group_name_H-M_alt    "P 1"
_space_group_IT_number       1

loop_
  _space_group_symop_operation_xyz
  'x, y, z'

loop_
  _atom_site_type_symbol
  _atom_site_label
  _atom_site_symmetry_multiplicity
  _atom_site_fract_x
  _atom_site_fract_y
  _atom_site_fract_z
  _atom_site_occupancy
  Ni  Ni1       1.0  0.22657  0.03911  0.44181  1.0000
  Ni  Ni2       1.0  0.77310  0.55833  0.96076  1.0000
  Ni  Ni3       1.0  0.99972  0.58909  0.41048  1.0000
  H   H1        1.0  0.49909  0.92550  0.07600  1.0000
  H   H2        1.0  0.29568  0.34338  0.92406  1.0000
  H   H3        1.0  0.70325  0.07695  0.65865  1.0000
  H   H4        1.0  0.00197  0.19145  0.80677  1.0000
  H   H5        1.0  0.20823  0.77334  0.96169  1.0000
  H   H6        1.0  0.79238  0.03813  0.22444  1.0000
  H   H7        1.0  0.02732  0.25014  0.32308  1.0000
  H   H8        1.0  0.97114  0.67894  0.75077  1.0000
  H   H9        1.0  0.54454  0.18509  0.30555  1.0000
  H   H10       1.0  0.45651  0.69392  0.81426  1.0000
  H   H11       1.0  0.91558  0.90688  0.58353  1.0000
  H   H12       1.0  0.08225  0.41650  0.09417  1.0000
  H   H13       1.0  0.58228  0.83531  0.40981  1.0000
  H   H14       1.0  0.41681  0.58794  0.16410  1.0000
  H   H15       1.0  0.31187  0.57705  0.54275  1.0000
  H   H16       1.0  0.68720  0.45652  0.42398  1.0000
  H   H17       1.0  0.32820  0.38095  0.46803  1.0000
  H   H18       1.0  0.67292  0.53305  0.61922  1.0000
  H   H19       1.0  0.29804  0.72241  0.45716  1.0000
  H   H20       1.0  0.70093  0.54112  0.27812  1.0000
  H   H21       1.0  0.13465  0.33250  0.43472  1.0000
  H   H22       1.0  0.86684  0.56704  0.66674  1.0000
  H   H23       1.0  0.52959  0.16177  0.46075  1.0000
  H   H24       1.0  0.47443  0.53841  0.83640  1.0000
  H   H25       1.0  0.92696  0.90974  0.43119  1.0000
  H   H26       1.0  0.06999  0.56896  0.09163  1.0000
  H   H27       1.0  0.85366  0.23620  0.47303  1.0000
  H   H28       1.0  0.14661  0.52933  0.76456  1.0000
  H   H29       1.0  0.43005  0.83144  0.56082  1.0000
  H   H30       1.0  0.57148  0.43734  0.16703  1.0000
  C   C1        1.0  0.25722  0.15041  0.15370  1.0000
  C   C2        1.0  0.74081  0.84754  0.85075  1.0000
  C   C3        1.0  0.38197  0.13597  0.01468  1.0000
  C   C4        1.0  0.61632  0.98658  0.86562  1.0000
  C   C5        1.0  0.49921  0.00865  0.99273  1.0000
  C   C6        1.0  0.38467  0.24347  0.90795  1.0000
  C   C7        1.0  0.61401  0.09338  0.75829  1.0000
  C   C8        1.0  0.49958  0.22232  0.77923  1.0000
  C   C9        1.0  0.50032  0.33652  0.66479  1.0000
  C   C10       1.0  0.23012  0.95442  0.73036  1.0000
  C   C11       1.0  0.77216  0.26879  0.04372  1.0000
  C   C12       1.0  0.11655  0.97970  0.86845  1.0000
  C   C13       1.0  0.88597  0.13065  0.01840  1.0000
  C   C14       1.0  0.00151  0.10824  0.89029  1.0000
  C   C15       1.0  0.11828  0.87354  0.97614  1.0000
  C   C16       1.0  0.88303  0.02307  0.12463  1.0000
  C   C17       1.0  0.00028  0.89516  0.10365  1.0000
  C   C18       1.0  0.99941  0.78263  0.21655  1.0000
  O   O1        1.0  0.28716  0.04643  0.24287  1.0000
  O   O2        1.0  0.71076  0.75786  0.95416  1.0000
  O   O3        1.0  0.12708  0.26216  0.17601  1.0000
  O   O4        1.0  0.87095  0.82575  0.73895  1.0000
  O   O5        1.0  0.01160  0.22793  0.42500  1.0000
  O   O6        1.0  0.98842  0.57677  0.77220  1.0000
  O   O7        1.0  0.50958  0.12343  0.39237  1.0000
  O   O8        1.0  0.49187  0.60685  0.87581  1.0000
  O   O9        1.0  0.94309  0.96061  0.49123  1.0000
  O   O10       1.0  0.05451  0.50894  0.04046  1.0000
  O   O11       1.0  0.42711  0.84282  0.46333  1.0000
  O   O12       1.0  0.57247  0.53510  0.15670  1.0000
  O   O13       1.0  0.17904  0.04902  0.63601  1.0000
  O   O14       1.0  0.82294  0.36348  0.94964  1.0000
  O   O15       1.0  0.36525  0.84248  0.71429  1.0000
  O   O16       1.0  0.63678  0.28448  0.15554  1.0000
  O   O17       1.0  0.11922  0.66563  0.20156  1.0000
  O   O18       1.0  0.87910  0.79843  0.33307  1.0000
  O   O19       1.0  0.23628  0.64212  0.47667  1.0000
  O   O20       1.0  0.76326  0.52192  0.35821  1.0000
  O   O21       1.0  0.20913  0.40810  0.41885  1.0000
  O   O22       1.0  0.79187  0.58225  0.59140  1.0000
  O   O23       1.0  0.43378  0.45605  0.68703  1.0000
  O   O24       1.0  0.56750  0.31363  0.54555  1.0000
