data_image0
_chemical_formula_structural       Cu2H26C38S2N2O8
_chemical_formula_sum              "Cu2 H26 C38 S2 N2 O8"
_cell_length_a       8.04729
_cell_length_b       10.6368
_cell_length_c       10.956
_cell_angle_alpha    68.8852
_cell_angle_beta     80.8954
_cell_angle_gamma    73.9754

_space_group_name_H-M_alt    "P 1"
_space_group_IT_number       1

loop_
  _space_group_symop_operation_xyz
  'x, y, z'

loop_
  _atom_site_type_symbol
  _atom_site_label
  _atom_site_symmetry_multiplicity
  _atom_site_fract_x
  _atom_site_fract_y
  _atom_site_fract_z
  _atom_site_occupancy
  Cu  Cu1       1.0  0.62949  0.92575  0.44842  1.0000
  Cu  Cu2       1.0  0.37052  0.07425  0.55156  1.0000
  H   H1        1.0  0.64548  0.56618  0.78052  1.0000
  H   H2        1.0  0.35451  0.43383  0.21948  1.0000
  H   H3        1.0  0.61329  0.33654  0.93972  1.0000
  H   H4        1.0  0.38671  0.66346  0.06028  1.0000
  H   H5        1.0  0.32008  0.28584  0.99610  1.0000
  H   H6        1.0  0.67993  0.71417  0.00390  1.0000
  H   H7        1.0  0.06331  0.46613  0.89784  1.0000
  H   H8        1.0  0.93669  0.53387  0.10217  1.0000
  H   H9        1.0  0.14289  0.71706  0.95465  1.0000
  H   H10       1.0  0.85709  0.28294  0.04535  1.0000
  H   H11       1.0  0.01780  0.82713  0.12125  1.0000
  H   H12       1.0  0.98217  0.17288  0.87875  1.0000
  H   H13       1.0  0.72852  0.99536  0.09653  1.0000
  H   H14       1.0  0.27145  0.00464  0.90346  1.0000
  H   H15       1.0  0.57671  0.05943  0.89155  1.0000
  H   H16       1.0  0.42328  0.94058  0.10843  1.0000
  H   H17       1.0  0.00544  0.93280  0.40244  1.0000
  H   H18       1.0  0.99458  0.06719  0.59758  1.0000
  H   H19       1.0  0.29514  0.76763  0.39399  1.0000
  H   H20       1.0  0.70488  0.23237  0.60602  1.0000
  H   H21       1.0  0.30394  0.54008  0.37001  1.0000
  H   H22       1.0  0.69609  0.45991  0.63000  1.0000
  H   H23       1.0  0.02601  0.49342  0.34018  1.0000
  H   H24       1.0  0.97402  0.50657  0.65984  1.0000
  H   H25       1.0  0.74830  0.66952  0.35179  1.0000
  H   H26       1.0  0.25172  0.33047  0.64821  1.0000
  C   C1        1.0  0.40838  0.77770  0.65022  1.0000
  C   C2        1.0  0.59161  0.22230  0.34977  1.0000
  C   C3        1.0  0.37416  0.64472  0.74878  1.0000
  C   C4        1.0  0.62584  0.35528  0.25121  1.0000
  C   C5        1.0  0.51841  0.54261  0.80642  1.0000
  C   C6        1.0  0.48159  0.45740  0.19358  1.0000
  C   C7        1.0  0.49977  0.41464  0.89578  1.0000
  C   C8        1.0  0.50023  0.58536  0.10421  1.0000
  C   C9        1.0  0.33600  0.38639  0.92808  1.0000
  C   C10       1.0  0.66400  0.61362  0.07192  1.0000
  C   C11       1.0  0.19132  0.48799  0.87295  1.0000
  C   C12       1.0  0.80868  0.51201  0.12706  1.0000
  C   C13       1.0  0.20768  0.61841  0.78506  1.0000
  C   C14       1.0  0.79232  0.38159  0.21494  1.0000
  C   C15       1.0  0.93157  0.82234  0.82796  1.0000
  C   C16       1.0  0.06842  0.17766  0.17203  1.0000
  C   C17       1.0  0.01773  0.79130  0.94111  1.0000
  C   C18       1.0  0.98225  0.20871  0.05889  1.0000
  C   C19       1.0  0.94601  0.85307  0.03570  1.0000
  C   C20       1.0  0.05396  0.14693  0.96430  1.0000
  C   C21       1.0  0.78529  0.94892  0.02099  1.0000
  C   C22       1.0  0.21469  0.05109  0.97900  1.0000
  C   C23       1.0  0.70078  0.98374  0.90810  1.0000
  C   C24       1.0  0.29920  0.01627  0.09189  1.0000
  C   C25       1.0  0.77050  0.92243  0.81102  1.0000
  C   C26       1.0  0.22948  0.07757  0.18897  1.0000
  C   C27       1.0  0.66962  0.96401  0.69451  1.0000
  C   C28       1.0  0.33037  0.03600  0.30547  1.0000
  C   C29       1.0  0.01653  0.83426  0.38849  1.0000
  C   C30       1.0  0.98348  0.16573  0.61152  1.0000
  C   C31       1.0  0.17692  0.74217  0.38392  1.0000
  C   C32       1.0  0.82311  0.25781  0.61610  1.0000
  C   C33       1.0  0.18171  0.61659  0.36893  1.0000
  C   C34       1.0  0.81831  0.38340  0.63109  1.0000
  C   C35       1.0  0.02734  0.58982  0.35364  1.0000
  C   C36       1.0  0.97269  0.41017  0.64638  1.0000
  C   C37       1.0  0.87277  0.68708  0.36025  1.0000
  C   C38       1.0  0.12725  0.31291  0.63975  1.0000
  S   S1        1.0  0.01890  0.73905  0.71068  1.0000
  S   S2        1.0  0.98109  0.26095  0.28932  1.0000
  N   N1        1.0  0.86663  0.80622  0.37966  1.0000
  N   N2        1.0  0.13339  0.19377  0.62034  1.0000
  O   O1        1.0  0.53429  0.76269  0.56563  1.0000
  O   O2        1.0  0.46570  0.23731  0.43436  1.0000
  O   O3        1.0  0.31543  0.89107  0.66184  1.0000
  O   O4        1.0  0.68457  0.10893  0.33815  1.0000
  O   O5        1.0  0.51919  0.04525  0.69291  1.0000
  O   O6        1.0  0.48081  0.95476  0.30707  1.0000
  O   O7        1.0  0.74222  0.91417  0.60364  1.0000
  O   O8        1.0  0.25778  0.08583  0.39634  1.0000
