data_image0
_chemical_formula_structural       Hg4H40C36N8Cl8
_chemical_formula_sum              "Hg4 H40 C36 N8 Cl8"
_cell_length_a       8.89376
_cell_length_b       8.89375
_cell_length_c       17.5725
_cell_angle_alpha    90.9509
_cell_angle_beta     90.9506
_cell_angle_gamma    118.399

_space_group_name_H-M_alt    "P 1"
_space_group_IT_number       1

loop_
  _space_group_symop_operation_xyz
  'x, y, z'

loop_
  _atom_site_type_symbol
  _atom_site_label
  _atom_site_symmetry_multiplicity
  _atom_site_fract_x
  _atom_site_fract_y
  _atom_site_fract_z
  _atom_site_occupancy
  Hg  Hg1       1.0  0.43664  0.89696  0.40070  1.0000
  Hg  Hg2       1.0  0.10304  0.56336  0.09930  1.0000
  Hg  Hg3       1.0  0.56336  0.10303  0.59930  1.0000
  Hg  Hg4       1.0  0.89696  0.43664  0.90070  1.0000
  H   H1        1.0  0.18630  0.96268  0.51131  1.0000
  H   H2        1.0  0.03733  0.81371  0.98869  1.0000
  H   H3        1.0  0.81370  0.03732  0.48869  1.0000
  H   H4        1.0  0.96268  0.18630  0.01131  1.0000
  H   H5        1.0  0.87887  0.81927  0.55022  1.0000
  H   H6        1.0  0.18073  0.12113  0.94978  1.0000
  H   H7        1.0  0.12112  0.18073  0.44977  1.0000
  H   H8        1.0  0.81927  0.87886  0.05022  1.0000
  H   H9        1.0  0.67516  0.53430  0.48889  1.0000
  H   H10       1.0  0.46570  0.32484  0.01111  1.0000
  H   H11       1.0  0.32484  0.46570  0.51111  1.0000
  H   H12       1.0  0.53429  0.67515  0.98889  1.0000
  H   H13       1.0  0.78776  0.40379  0.39339  1.0000
  H   H14       1.0  0.59621  0.21224  0.10660  1.0000
  H   H15       1.0  0.21224  0.59621  0.60660  1.0000
  H   H16       1.0  0.40378  0.78776  0.89340  1.0000
  H   H17       1.0  0.02035  0.41857  0.31868  1.0000
  H   H18       1.0  0.58144  0.97965  0.18131  1.0000
  H   H19       1.0  0.97965  0.58143  0.68132  1.0000
  H   H20       1.0  0.41856  0.02035  0.81869  1.0000
  H   H21       1.0  0.23028  0.43287  0.24404  1.0000
  H   H22       1.0  0.56713  0.76973  0.25596  1.0000
  H   H23       1.0  0.76972  0.56713  0.75596  1.0000
  H   H24       1.0  0.43287  0.23027  0.74404  1.0000
  H   H25       1.0  0.52533  0.56146  0.36290  1.0000
  H   H26       1.0  0.43854  0.47468  0.13710  1.0000
  H   H27       1.0  0.47468  0.43854  0.63710  1.0000
  H   H28       1.0  0.56145  0.52532  0.86290  1.0000
  H   H29       1.0  0.33143  0.36803  0.36568  1.0000
  H   H30       1.0  0.63197  0.66857  0.13433  1.0000
  H   H31       1.0  0.66857  0.63197  0.63432  1.0000
  H   H32       1.0  0.36803  0.33143  0.86567  1.0000
  H   H33       1.0  0.56284  0.31520  0.31361  1.0000
  H   H34       1.0  0.68480  0.43716  0.18639  1.0000
  H   H35       1.0  0.43716  0.68480  0.68639  1.0000
  H   H36       1.0  0.31520  0.56284  0.81361  1.0000
  H   H37       1.0  0.39855  0.26414  0.24463  1.0000
  H   H38       1.0  0.73586  0.60145  0.25537  1.0000
  H   H39       1.0  0.60145  0.73586  0.75537  1.0000
  H   H40       1.0  0.26414  0.39854  0.74463  1.0000
  C   C1        1.0  0.09221  0.84018  0.48614  1.0000
  C   C2        1.0  0.15983  0.90779  0.01386  1.0000
  C   C3        1.0  0.90779  0.15982  0.51386  1.0000
  C   C4        1.0  0.84017  0.09221  0.98614  1.0000
  C   C5        1.0  0.92173  0.75881  0.50764  1.0000
  C   C6        1.0  0.24119  0.07827  0.99236  1.0000
  C   C7        1.0  0.07827  0.24118  0.49236  1.0000
  C   C8        1.0  0.75882  0.92173  0.00764  1.0000
  C   C9        1.0  0.80902  0.60183  0.47349  1.0000
  C   C10       1.0  0.39818  0.19098  0.02651  1.0000
  C   C11       1.0  0.19098  0.39818  0.52650  1.0000
  C   C12       1.0  0.60182  0.80902  0.97350  1.0000
  C   C13       1.0  0.87064  0.52935  0.41954  1.0000
  C   C14       1.0  0.47066  0.12937  0.08046  1.0000
  C   C15       1.0  0.12936  0.47065  0.58046  1.0000
  C   C16       1.0  0.52934  0.87063  0.91954  1.0000
  C   C17       1.0  0.04233  0.61856  0.40011  1.0000
  C   C18       1.0  0.38145  0.95768  0.09989  1.0000
  C   C19       1.0  0.95767  0.38145  0.59989  1.0000
  C   C20       1.0  0.61855  0.04232  0.90011  1.0000
  C   C21       1.0  0.11120  0.54393  0.34431  1.0000
  C   C22       1.0  0.45607  0.88881  0.15569  1.0000
  C   C23       1.0  0.88881  0.45607  0.65569  1.0000
  C   C24       1.0  0.54392  0.11119  0.84432  1.0000
  C   C25       1.0  0.33633  0.53634  0.27757  1.0000
  C   C26       1.0  0.46367  0.66368  0.22243  1.0000
  C   C27       1.0  0.66368  0.46366  0.72243  1.0000
  C   C28       1.0  0.53633  0.33632  0.77757  1.0000
  C   C29       1.0  0.42499  0.45880  0.32693  1.0000
  C   C30       1.0  0.54120  0.57501  0.17307  1.0000
  C   C31       1.0  0.57501  0.54120  0.67307  1.0000
  C   C32       1.0  0.45880  0.42499  0.82692  1.0000
  C   C33       1.0  0.50195  0.37150  0.27745  1.0000
  C   C34       1.0  0.62850  0.49805  0.22255  1.0000
  C   C35       1.0  0.49805  0.62850  0.72255  1.0000
  C   C36       1.0  0.37150  0.50195  0.77745  1.0000
  N   N1        1.0  0.14947  0.77221  0.43297  1.0000
  N   N2        1.0  0.22780  0.85053  0.06703  1.0000
  N   N3        1.0  0.85053  0.22779  0.56703  1.0000
  N   N4        1.0  0.77220  0.14947  0.93297  1.0000
  N   N5        1.0  0.26919  0.62100  0.32755  1.0000
  N   N6        1.0  0.37901  0.73082  0.17245  1.0000
  N   N7        1.0  0.73082  0.37901  0.67245  1.0000
  N   N8        1.0  0.62099  0.26918  0.82755  1.0000
  Cl  Cl1       1.0  0.69624  0.06984  0.33234  1.0000
  Cl  Cl2       1.0  0.93017  0.30377  0.16766  1.0000
  Cl  Cl3       1.0  0.30376  0.93017  0.66766  1.0000
  Cl  Cl4       1.0  0.06983  0.69623  0.83234  1.0000
  Cl  Cl5       1.0  0.53706  0.79837  0.52407  1.0000
  Cl  Cl6       1.0  0.20163  0.46293  0.97593  1.0000
  Cl  Cl7       1.0  0.46294  0.20163  0.47593  1.0000
  Cl  Cl8       1.0  0.79837  0.53706  0.02407  1.0000
