data_image0
_chemical_formula_structural       CuH18C24N6O12
_chemical_formula_sum              "Cu1 H18 C24 N6 O12"
_cell_length_a       7.04339
_cell_length_b       8.04266
_cell_length_c       12.1502
_cell_angle_alpha    106.331
_cell_angle_beta     97.7614
_cell_angle_gamma    97.4637

_space_group_name_H-M_alt    "P 1"
_space_group_IT_number       1

loop_
  _space_group_symop_operation_xyz
  'x, y, z'

loop_
  _atom_site_type_symbol
  _atom_site_label
  _atom_site_symmetry_multiplicity
  _atom_site_fract_x
  _atom_site_fract_y
  _atom_site_fract_z
  _atom_site_occupancy
  Cu  Cu1       1.0  0.00000  0.00000  0.00000  1.0000
  H   H1        1.0  0.03603  0.11896  0.43923  1.0000
  H   H2        1.0  0.96397  0.88104  0.56077  1.0000
  H   H3        1.0  0.02617  0.10941  0.70364  1.0000
  H   H4        1.0  0.97383  0.89059  0.29635  1.0000
  H   H5        1.0  0.31755  0.63789  0.65317  1.0000
  H   H6        1.0  0.68245  0.36212  0.34684  1.0000
  H   H7        1.0  0.25824  0.49922  0.27906  1.0000
  H   H8        1.0  0.74176  0.50078  0.72094  1.0000
  H   H9        1.0  0.48977  0.93193  0.40212  1.0000
  H   H10       1.0  0.51023  0.06807  0.59788  1.0000
  H   H11       1.0  0.34104  0.09052  0.82822  1.0000
  H   H12       1.0  0.65897  0.90947  0.17178  1.0000
  H   H13       1.0  0.81410  0.34809  0.10367  1.0000
  H   H14       1.0  0.18589  0.65191  0.89633  1.0000
  H   H15       1.0  0.45029  0.44930  0.10748  1.0000
  H   H16       1.0  0.54971  0.55070  0.89251  1.0000
  H   H17       1.0  0.29832  0.38026  0.96639  1.0000
  H   H18       1.0  0.70169  0.61974  0.03361  1.0000
  C   C1        1.0  0.06997  0.16137  0.22798  1.0000
  C   C2        1.0  0.93003  0.83864  0.77202  1.0000
  C   C3        1.0  0.14244  0.29301  0.34579  1.0000
  C   C4        1.0  0.85755  0.70699  0.65421  1.0000
  C   C5        1.0  0.11179  0.24882  0.44600  1.0000
  C   C6        1.0  0.88821  0.75118  0.55400  1.0000
  C   C7        1.0  0.17644  0.37107  0.55686  1.0000
  C   C8        1.0  0.82356  0.62893  0.44314  1.0000
  C   C9        1.0  0.14679  0.31899  0.66297  1.0000
  C   C10       1.0  0.85320  0.68100  0.33701  1.0000
  C   C11       1.0  0.26777  0.54082  0.56757  1.0000
  C   C12       1.0  0.73223  0.45919  0.43243  1.0000
  C   C13       1.0  0.29522  0.58691  0.46716  1.0000
  C   C14       1.0  0.70478  0.41309  0.53284  1.0000
  C   C15       1.0  0.38491  0.77026  0.48076  1.0000
  C   C16       1.0  0.61508  0.22974  0.51923  1.0000
  C   C17       1.0  0.23558  0.46305  0.35674  1.0000
  C   C18       1.0  0.76442  0.53695  0.64327  1.0000
  C   C19       1.0  0.48188  0.11865  0.88485  1.0000
  C   C20       1.0  0.51812  0.88134  0.11515  1.0000
  C   C21       1.0  0.72388  0.25146  0.02737  1.0000
  C   C22       1.0  0.27612  0.74854  0.97263  1.0000
  C   C23       1.0  0.44900  0.41972  0.01358  1.0000
  C   C24       1.0  0.55100  0.58028  0.98641  1.0000
  N   N1        1.0  0.76160  0.09668  0.96976  1.0000
  N   N2        1.0  0.23841  0.90332  0.03024  1.0000
  N   N3        1.0  0.60898  0.01159  0.87955  1.0000
  N   N4        1.0  0.39102  0.98840  0.12045  1.0000
  N   N5        1.0  0.54749  0.27003  0.97619  1.0000
  N   N6        1.0  0.45251  0.72997  0.02381  1.0000
  O   O1        1.0  0.09576  0.21329  0.13952  1.0000
  O   O2        1.0  0.90424  0.78672  0.86048  1.0000
  O   O3        1.0  0.98302  0.00702  0.21611  1.0000
  O   O4        1.0  0.01699  0.99298  0.78389  1.0000
  O   O5        1.0  0.03315  0.16278  0.63615  1.0000
  O   O6        1.0  0.96685  0.83722  0.36385  1.0000
  O   O7        1.0  0.22051  0.41122  0.76324  1.0000
  O   O8        1.0  0.77949  0.58878  0.23677  1.0000
  O   O9        1.0  0.42766  0.79970  0.38506  1.0000
  O   O10       1.0  0.57234  0.20030  0.61495  1.0000
  O   O11       1.0  0.41465  0.88477  0.57826  1.0000
  O   O12       1.0  0.58535  0.11525  0.42175  1.0000
