data_image0
_chemical_formula_structural       Cd3H14C24N6O12
_chemical_formula_sum              "Cd3 H14 C24 N6 O12"
_cell_length_a       8.68616
_cell_length_b       9.25037
_cell_length_c       10.0062
_cell_angle_alpha    101.309
_cell_angle_beta     105.113
_cell_angle_gamma    114.271

_space_group_name_H-M_alt    "P 1"
_space_group_IT_number       1

loop_
  _space_group_symop_operation_xyz
  'x, y, z'

loop_
  _atom_site_type_symbol
  _atom_site_label
  _atom_site_symmetry_multiplicity
  _atom_site_fract_x
  _atom_site_fract_y
  _atom_site_fract_z
  _atom_site_occupancy
  Cd  Cd1       1.0  0.22765  0.01407  0.13719  1.0000
  Cd  Cd2       1.0  0.77235  0.98593  0.86281  1.0000
  Cd  Cd3       1.0  0.50000  0.00000  0.50000  1.0000
  H   H1        1.0  0.36815  0.76973  0.92101  1.0000
  H   H2        1.0  0.63185  0.23027  0.07899  1.0000
  H   H3        1.0  0.60495  0.70139  0.31381  1.0000
  H   H4        1.0  0.39505  0.29861  0.68619  1.0000
  H   H5        1.0  0.70416  0.64118  0.06867  1.0000
  H   H6        1.0  0.29584  0.35882  0.93133  1.0000
  H   H7        1.0  0.53853  0.61034  0.90157  1.0000
  H   H8        1.0  0.46147  0.38966  0.09843  1.0000
  H   H9        1.0  0.22941  0.45601  0.33706  1.0000
  H   H10       1.0  0.77059  0.54399  0.66294  1.0000
  H   H11       1.0  0.82834  0.02665  0.38737  1.0000
  H   H12       1.0  0.17166  0.97335  0.61263  1.0000
  H   H13       1.0  0.20060  0.47819  0.76333  1.0000
  H   H14       1.0  0.79940  0.52181  0.23667  1.0000
  C   C1        1.0  0.40789  0.77431  0.03458  1.0000
  C   C2        1.0  0.59211  0.22569  0.96542  1.0000
  C   C3        1.0  0.53283  0.74148  0.23659  1.0000
  C   C4        1.0  0.46717  0.25852  0.76342  1.0000
  C   C5        1.0  0.55740  0.59255  0.00881  1.0000
  C   C6        1.0  0.44260  0.40745  0.99119  1.0000
  C   C7        1.0  0.23155  0.48760  0.55682  1.0000
  C   C8        1.0  0.76845  0.51240  0.44318  1.0000
  C   C9        1.0  0.16750  0.39609  0.40671  1.0000
  C   C10       1.0  0.83251  0.60391  0.59329  1.0000
  C   C11       1.0  0.02320  0.23023  0.34519  1.0000
  C   C12       1.0  0.97681  0.76977  0.65481  1.0000
  C   C13       1.0  0.94222  0.15487  0.43477  1.0000
  C   C14       1.0  0.05778  0.84513  0.56523  1.0000
  C   C15       1.0  0.00902  0.24260  0.58605  1.0000
  C   C16       1.0  0.99098  0.75740  0.41395  1.0000
  C   C17       1.0  0.15353  0.40941  0.64639  1.0000
  C   C18       1.0  0.84647  0.59059  0.35361  1.0000
  C   C19       1.0  0.37892  0.66996  0.61457  1.0000
  C   C20       1.0  0.62108  0.33005  0.38542  1.0000
  C   C21       1.0  0.95774  0.13876  0.18320  1.0000
  C   C22       1.0  0.04226  0.86124  0.81680  1.0000
  C   C23       1.0  0.92861  0.15871  0.68349  1.0000
  C   C24       1.0  0.07139  0.84129  0.31651  1.0000
  N   N1        1.0  0.38582  0.86169  0.14199  1.0000
  N   N2        1.0  0.61418  0.13831  0.85801  1.0000
  N   N3        1.0  0.46496  0.84153  0.26933  1.0000
  N   N4        1.0  0.53504  0.15847  0.73067  1.0000
  N   N5        1.0  0.49977  0.69667  0.08976  1.0000
  N   N6        1.0  0.50023  0.30333  0.91024  1.0000
  O   O1        1.0  0.48820  0.73393  0.74946  1.0000
  O   O2        1.0  0.51180  0.26607  0.25054  1.0000
  O   O3        1.0  0.37933  0.74285  0.52001  1.0000
  O   O4        1.0  0.62067  0.25715  0.47999  1.0000
  O   O5        1.0  0.07695  0.16703  0.12432  1.0000
  O   O6        1.0  0.92305  0.83297  0.87568  1.0000
  O   O7        1.0  0.78742  0.04237  0.10969  1.0000
  O   O8        1.0  0.21258  0.95763  0.89031  1.0000
  O   O9        1.0  0.77833  0.01550  0.62232  1.0000
  O   O10       1.0  0.22167  0.98450  0.37768  1.0000
  O   O11       1.0  0.00948  0.22530  0.82187  1.0000
  O   O12       1.0  0.99052  0.77470  0.17813  1.0000
