data_image0
_chemical_formula_structural       Ni4H20C28N4O20
_chemical_formula_sum              "Ni4 H20 C28 N4 O20"
_cell_length_a       6.24421
_cell_length_b       7.76463
_cell_length_c       15.1341
_cell_angle_alpha    90
_cell_angle_beta     89.9999
_cell_angle_gamma    107.75

_space_group_name_H-M_alt    "P 1"
_space_group_IT_number       1

loop_
  _space_group_symop_operation_xyz
  'x, y, z'

loop_
  _atom_site_type_symbol
  _atom_site_label
  _atom_site_symmetry_multiplicity
  _atom_site_fract_x
  _atom_site_fract_y
  _atom_site_fract_z
  _atom_site_occupancy
  Ni  Ni1       1.0  0.25958  0.72253  0.41767  1.0000
  Ni  Ni2       1.0  0.24042  0.27747  0.91767  1.0000
  Ni  Ni3       1.0  0.74042  0.27747  0.58233  1.0000
  Ni  Ni4       1.0  0.75958  0.72253  0.08233  1.0000
  H   H1        1.0  0.66780  0.90488  0.47009  1.0000
  H   H2        1.0  0.83220  0.09513  0.97008  1.0000
  H   H3        1.0  0.33219  0.09512  0.52992  1.0000
  H   H4        1.0  0.16781  0.90488  0.02991  1.0000
  H   H5        1.0  0.69837  0.75976  0.40382  1.0000
  H   H6        1.0  0.80163  0.24023  0.90382  1.0000
  H   H7        1.0  0.30163  0.24023  0.59618  1.0000
  H   H8        1.0  0.19837  0.75977  0.09618  1.0000
  H   H9        1.0  0.34278  0.67864  0.23752  1.0000
  H   H10       1.0  0.15722  0.32135  0.73752  1.0000
  H   H11       1.0  0.65722  0.32135  0.76248  1.0000
  H   H12       1.0  0.84278  0.67865  0.26248  1.0000
  H   H13       1.0  0.22460  0.11043  0.18366  1.0000
  H   H14       1.0  0.27540  0.88957  0.68366  1.0000
  H   H15       1.0  0.77540  0.88957  0.81634  1.0000
  H   H16       1.0  0.72460  0.11043  0.31634  1.0000
  H   H17       1.0  0.22866  0.32151  0.44830  1.0000
  H   H18       1.0  0.27133  0.67849  0.94830  1.0000
  H   H19       1.0  0.77134  0.67849  0.55170  1.0000
  H   H20       1.0  0.72866  0.32151  0.05170  1.0000
  C   C1        1.0  0.30632  0.53886  0.25884  1.0000
  C   C2        1.0  0.19368  0.46113  0.75885  1.0000
  C   C3        1.0  0.69368  0.46113  0.74115  1.0000
  C   C4        1.0  0.80632  0.53887  0.24115  1.0000
  C   C5        1.0  0.28091  0.39964  0.19766  1.0000
  C   C6        1.0  0.21909  0.60036  0.69766  1.0000
  C   C7        1.0  0.71909  0.60036  0.80234  1.0000
  C   C8        1.0  0.78091  0.39964  0.30234  1.0000
  C   C9        1.0  0.24386  0.22361  0.22895  1.0000
  C   C10       1.0  0.25614  0.77639  0.72895  1.0000
  C   C11       1.0  0.75614  0.77639  0.77105  1.0000
  C   C12       1.0  0.74387  0.22361  0.27105  1.0000
  C   C13       1.0  0.23539  0.19449  0.32030  1.0000
  C   C14       1.0  0.26461  0.80551  0.82030  1.0000
  C   C15       1.0  0.76461  0.80551  0.67970  1.0000
  C   C16       1.0  0.73539  0.19449  0.17970  1.0000
  C   C17       1.0  0.24880  0.33945  0.37709  1.0000
  C   C18       1.0  0.25120  0.66055  0.87709  1.0000
  C   C19       1.0  0.75120  0.66055  0.62291  1.0000
  C   C20       1.0  0.74880  0.33945  0.12291  1.0000
  C   C21       1.0  0.29681  0.44476  0.10072  1.0000
  C   C22       1.0  0.20318  0.55524  0.60072  1.0000
  C   C23       1.0  0.70319  0.55524  0.89928  1.0000
  C   C24       1.0  0.79681  0.44476  0.39928  1.0000
  C   C25       1.0  0.22432  0.01364  0.35667  1.0000
  C   C26       1.0  0.27568  0.98636  0.85667  1.0000
  C   C27       1.0  0.77568  0.98636  0.64333  1.0000
  C   C28       1.0  0.72433  0.01364  0.14333  1.0000
  N   N1        1.0  0.28278  0.50858  0.34665  1.0000
  N   N2        1.0  0.21721  0.49142  0.84665  1.0000
  N   N3        1.0  0.71721  0.49142  0.65335  1.0000
  N   N4        1.0  0.78279  0.50858  0.15335  1.0000
  O   O1        1.0  0.38763  0.60960  0.07753  1.0000
  O   O2        1.0  0.11237  0.39040  0.57754  1.0000
  O   O3        1.0  0.61237  0.39040  0.92247  1.0000
  O   O4        1.0  0.88762  0.60960  0.42246  1.0000
  O   O5        1.0  0.21401  0.31354  0.04866  1.0000
  O   O6        1.0  0.28598  0.68646  0.54866  1.0000
  O   O7        1.0  0.78598  0.68646  0.95134  1.0000
  O   O8        1.0  0.71402  0.31354  0.45134  1.0000
  O   O9        1.0  0.22125  0.98720  0.44040  1.0000
  O   O10       1.0  0.27875  0.01280  0.94040  1.0000
  O   O11       1.0  0.77875  0.01280  0.55960  1.0000
  O   O12       1.0  0.72124  0.98720  0.05960  1.0000
  O   O13       1.0  0.22682  0.88660  0.30418  1.0000
  O   O14       1.0  0.27319  0.11341  0.80418  1.0000
  O   O15       1.0  0.77319  0.11341  0.69582  1.0000
  O   O16       1.0  0.72683  0.88660  0.19582  1.0000
  O   O17       1.0  0.61054  0.84463  0.41244  1.0000
  O   O18       1.0  0.88946  0.15537  0.91244  1.0000
  O   O19       1.0  0.38946  0.15537  0.58756  1.0000
  O   O20       1.0  0.11055  0.84463  0.08755  1.0000
