data_image0
_chemical_formula_structural       Hg2H22C26Br4N6
_chemical_formula_sum              "Hg2 H22 C26 Br4 N6"
_cell_length_a       8.09511
_cell_length_b       9.11903
_cell_length_c       10.9204
_cell_angle_alpha    102.229
_cell_angle_beta     96.4894
_cell_angle_gamma    112.012

_space_group_name_H-M_alt    "P 1"
_space_group_IT_number       1

loop_
  _space_group_symop_operation_xyz
  'x, y, z'

loop_
  _atom_site_type_symbol
  _atom_site_label
  _atom_site_symmetry_multiplicity
  _atom_site_fract_x
  _atom_site_fract_y
  _atom_site_fract_z
  _atom_site_occupancy
  Hg  Hg1       1.0  0.45014  0.08199  0.70590  1.0000
  Hg  Hg2       1.0  0.54986  0.91801  0.29410  1.0000
  H   H1        1.0  0.52359  0.77337  0.79468  1.0000
  H   H2        1.0  0.47641  0.22664  0.20532  1.0000
  H   H3        1.0  0.95959  0.85115  0.65327  1.0000
  H   H4        1.0  0.04039  0.14882  0.34672  1.0000
  H   H5        1.0  0.91474  0.27809  0.63353  1.0000
  H   H6        1.0  0.08528  0.72191  0.36648  1.0000
  H   H7        1.0  0.47339  0.47787  0.74751  1.0000
  H   H8        1.0  0.52661  0.52214  0.25249  1.0000
  H   H9        1.0  0.26225  0.32859  0.65141  1.0000
  H   H10       1.0  0.73776  0.67142  0.34859  1.0000
  H   H11       1.0  0.64265  0.32479  0.55945  1.0000
  H   H12       1.0  0.35735  0.67519  0.44055  1.0000
  H   H13       1.0  0.66296  0.60671  0.57194  1.0000
  H   H14       1.0  0.33703  0.39326  0.42805  1.0000
  H   H15       1.0  0.13532  0.42973  0.13205  1.0000
  H   H16       1.0  0.86470  0.57029  0.86795  1.0000
  H   H17       1.0  0.27180  0.03756  0.94238  1.0000
  H   H18       1.0  0.72820  0.96244  0.05763  1.0000
  H   H19       1.0  0.21309  0.55763  0.95535  1.0000
  H   H20       1.0  0.78691  0.44238  0.04465  1.0000
  H   H21       1.0  0.15768  0.15823  0.12348  1.0000
  H   H22       1.0  0.84232  0.84179  0.87653  1.0000
  C   C1        1.0  0.37732  0.72377  0.75884  1.0000
  C   C2        1.0  0.62267  0.27624  0.24116  1.0000
  C   C3        1.0  0.10419  0.70227  0.69212  1.0000
  C   C4        1.0  0.89580  0.29772  0.30787  1.0000
  C   C5        1.0  0.94989  0.72835  0.65199  1.0000
  C   C6        1.0  0.05009  0.27163  0.34800  1.0000
  C   C7        1.0  0.92584  0.40246  0.64013  1.0000
  C   C8        1.0  0.07417  0.59753  0.35986  1.0000
  C   C9        1.0  0.32499  0.42954  0.74062  1.0000
  C   C10       1.0  0.67502  0.57047  0.25939  1.0000
  C   C11       1.0  0.09039  0.54117  0.68677  1.0000
  C   C12       1.0  0.90961  0.45883  0.31323  1.0000
  C   C13       1.0  0.77337  0.43031  0.59936  1.0000
  C   C14       1.0  0.22663  0.56967  0.40063  1.0000
  C   C15       1.0  0.78497  0.59013  0.60602  1.0000
  C   C16       1.0  0.21502  0.40985  0.39397  1.0000
  C   C17       1.0  0.27839  0.36222  0.85354  1.0000
  C   C18       1.0  0.72161  0.63778  0.14646  1.0000
  C   C19       1.0  0.17944  0.36949  0.05318  1.0000
  C   C20       1.0  0.82057  0.63052  0.94683  1.0000
  C   C21       1.0  0.25444  0.15171  0.94762  1.0000
  C   C22       1.0  0.74555  0.84830  0.05238  1.0000
  C   C23       1.0  0.22251  0.44121  0.95376  1.0000
  C   C24       1.0  0.77751  0.55880  0.04624  1.0000
  C   C25       1.0  0.19344  0.22087  0.04949  1.0000
  C   C26       1.0  0.80656  0.77914  0.95051  1.0000
  Br  Br1       1.0  0.28835  0.06371  0.48645  1.0000
  Br  Br2       1.0  0.71164  0.93629  0.51355  1.0000
  Br  Br3       1.0  0.73702  0.15303  0.87044  1.0000
  Br  Br4       1.0  0.26297  0.84697  0.12956  1.0000
  N   N1        1.0  0.28567  0.81268  0.73758  1.0000
  N   N2        1.0  0.71432  0.18732  0.26242  1.0000
  N   N3        1.0  0.26749  0.56002  0.73054  1.0000
  N   N4        1.0  0.73251  0.43998  0.26946  1.0000
  N   N5        1.0  0.29617  0.22080  0.85191  1.0000
  N   N6        1.0  0.70384  0.77921  0.14810  1.0000
