data_image0
_chemical_formula_structural       Cu2Ni2H30C24N6O18
_chemical_formula_sum              "Cu2 Ni2 H30 C24 N6 O18"
_cell_length_a       9.24241
_cell_length_b       9.00403
_cell_length_c       10.9601
_cell_angle_alpha    66.9323
_cell_angle_beta     79.167
_cell_angle_gamma    84.0272

_space_group_name_H-M_alt    "P 1"
_space_group_IT_number       1

loop_
  _space_group_symop_operation_xyz
  'x, y, z'

loop_
  _atom_site_type_symbol
  _atom_site_label
  _atom_site_symmetry_multiplicity
  _atom_site_fract_x
  _atom_site_fract_y
  _atom_site_fract_z
  _atom_site_occupancy
  Cu  Cu1       1.0  0.92395  0.49630  0.35548  1.0000
  Cu  Cu2       1.0  0.07565  0.50380  0.64526  1.0000
  Ni  Ni1       1.0  0.50074  0.37363  0.23548  1.0000
  Ni  Ni2       1.0  0.49900  0.62713  0.76345  1.0000
  H   H1        1.0  0.73543  0.66286  0.21185  1.0000
  H   H2        1.0  0.26163  0.33579  0.79120  1.0000
  H   H3        1.0  0.75859  0.76063  0.30480  1.0000
  H   H4        1.0  0.23876  0.23813  0.69808  1.0000
  H   H5        1.0  0.60460  0.47129  0.40093  1.0000
  H   H6        1.0  0.39552  0.52620  0.60008  1.0000
  H   H7        1.0  0.47754  0.60604  0.33310  1.0000
  H   H8        1.0  0.52321  0.39295  0.66860  1.0000
  H   H9        1.0  0.54164  0.16861  0.11370  1.0000
  H   H10       1.0  0.45879  0.83193  0.88575  1.0000
  H   H11       1.0  0.42408  0.30302  0.04356  1.0000
  H   H12       1.0  0.57463  0.69664  0.95672  1.0000
  H   H13       1.0  0.66031  0.47676  0.98891  1.0000
  H   H14       1.0  0.33713  0.52214  0.01200  1.0000
  H   H15       1.0  0.73939  0.47332  0.11107  1.0000
  H   H16       1.0  0.26147  0.52403  0.88903  1.0000
  H   H17       1.0  0.03574  0.66705  0.02703  1.0000
  H   H18       1.0  0.96078  0.33435  0.97399  1.0000
  H   H19       1.0  0.15112  0.79780  0.04883  1.0000
  H   H20       1.0  0.84468  0.20491  0.95133  1.0000
  H   H21       1.0  0.95377  0.89836  0.17415  1.0000
  H   H22       1.0  0.04164  0.10284  0.82696  1.0000
  H   H23       1.0  0.86924  0.88384  0.04639  1.0000
  H   H24       1.0  0.12554  0.11594  0.95571  1.0000
  H   H25       1.0  0.72750  0.98977  0.76706  1.0000
  H   H26       1.0  0.27560  0.00860  0.23282  1.0000
  H   H27       1.0  0.91144  0.76109  0.83179  1.0000
  H   H28       1.0  0.09268  0.23794  0.16630  1.0000
  H   H29       1.0  0.24685  0.06566  0.54331  1.0000
  H   H30       1.0  0.75583  0.93587  0.45490  1.0000
  C   C1        1.0  0.20446  0.35622  0.36907  1.0000
  C   C2        1.0  0.79589  0.64562  0.62887  1.0000
  C   C3        1.0  0.21086  0.50619  0.23950  1.0000
  C   C4        1.0  0.78789  0.49677  0.75907  1.0000
  C   C5        1.0  0.05683  0.71828  0.09823  1.0000
  C   C6        1.0  0.93967  0.28349  0.90258  1.0000
  C   C7        1.0  0.92044  0.81377  0.13584  1.0000
  C   C8        1.0  0.07550  0.18675  0.86571  1.0000
  C   C9        1.0  0.75164  0.27634  0.59411  1.0000
  C   C10       1.0  0.25021  0.72268  0.40690  1.0000
  C   C11       1.0  0.87993  0.15675  0.61783  1.0000
  C   C12       1.0  0.12243  0.84274  0.38208  1.0000
  C   C13       1.0  0.84217  0.00571  0.71919  1.0000
  C   C14       1.0  0.16080  0.99331  0.28028  1.0000
  C   C15       1.0  0.94399  0.87859  0.75587  1.0000
  C   C16       1.0  0.05952  0.12085  0.24268  1.0000
  C   C17       1.0  0.09116  0.90205  0.69293  1.0000
  C   C18       1.0  0.91227  0.09826  0.30539  1.0000
  C   C19       1.0  0.13271  0.05049  0.59227  1.0000
  C   C20       1.0  0.87017  0.95031  0.40646  1.0000
  C   C21       1.0  0.02884  0.17994  0.54912  1.0000
  C   C22       1.0  0.97329  0.82029  0.45009  1.0000
  C   C23       1.0  0.20123  0.76456  0.73528  1.0000
  C   C24       1.0  0.80164  0.23509  0.26284  1.0000
  N   N1        1.0  0.08719  0.58767  0.22011  1.0000
  N   N2        1.0  0.91065  0.41452  0.78035  1.0000
  N   N3        1.0  0.06868  0.32413  0.44124  1.0000
  N   N4        1.0  0.93224  0.67649  0.55790  1.0000
  N   N5        1.0  0.81441  0.70387  0.24449  1.0000
  N   N6        1.0  0.18285  0.29556  0.75779  1.0000
  O   O1        1.0  0.32437  0.27592  0.39089  1.0000
  O   O2        1.0  0.67649  0.72596  0.60555  1.0000
  O   O3        1.0  0.33442  0.53539  0.15886  1.0000
  O   O4        1.0  0.66324  0.46922  0.83861  1.0000
  O   O5        1.0  0.75681  0.40926  0.48773  1.0000
  O   O6        1.0  0.24354  0.58919  0.51281  1.0000
  O   O7        1.0  0.63624  0.24434  0.67987  1.0000
  O   O8        1.0  0.36667  0.75477  0.32242  1.0000
  O   O9        1.0  0.14920  0.62461  0.80526  1.0000
  O   O10       1.0  0.85310  0.37546  0.19200  1.0000
  O   O11       1.0  0.33830  0.79564  0.70147  1.0000
  O   O12       1.0  0.66504  0.20318  0.29731  1.0000
  O   O13       1.0  0.55467  0.52126  0.32114  1.0000
  O   O14       1.0  0.44495  0.47671  0.68023  1.0000
  O   O15       1.0  0.45215  0.22880  0.13163  1.0000
  O   O16       1.0  0.54816  0.77125  0.86837  1.0000
  O   O17       1.0  0.64765  0.51648  0.06366  1.0000
  O   O18       1.0  0.35097  0.48015  0.93849  1.0000
