data_image0
_chemical_formula_structural       CdH8C12I2N4
_chemical_formula_sum              "Cd1 H8 C12 I2 N4"
_cell_length_a       4.09288
_cell_length_b       7.51561
_cell_length_c       12.3861
_cell_angle_alpha    97.0204
_cell_angle_beta     99.6428
_cell_angle_gamma    89.9838

_space_group_name_H-M_alt    "P 1"
_space_group_IT_number       1

loop_
  _space_group_symop_operation_xyz
  'x, y, z'

loop_
  _atom_site_type_symbol
  _atom_site_label
  _atom_site_symmetry_multiplicity
  _atom_site_fract_x
  _atom_site_fract_y
  _atom_site_fract_z
  _atom_site_occupancy
  Cd  Cd1       1.0  0.47427  0.49998  0.99998  1.0000
  H   H1        1.0  0.27781  0.46206  0.55361  1.0000
  H   H2        1.0  0.72058  0.53807  0.44649  1.0000
  H   H3        1.0  0.29222  0.00949  0.71352  1.0000
  H   H4        1.0  0.58388  0.99035  0.28640  1.0000
  H   H5        1.0  0.39197  0.88468  0.89426  1.0000
  H   H6        1.0  0.50253  0.11513  0.10563  1.0000
  H   H7        1.0  0.37776  0.36168  0.74085  1.0000
  H   H8        1.0  0.63465  0.63833  0.25919  1.0000
  C   C1        1.0  0.30186  0.55995  0.62685  1.0000
  C   C2        1.0  0.67413  0.44011  0.37319  1.0000
  C   C3        1.0  0.31051  0.86567  0.71599  1.0000
  C   C4        1.0  0.59852  0.13421  0.28397  1.0000
  C   C5        1.0  0.27825  0.74466  0.61897  1.0000
  C   C6        1.0  0.66104  0.25534  0.38101  1.0000
  C   C7        1.0  0.22237  0.80442  0.51245  1.0000
  C   C8        1.0  0.70995  0.19575  0.48757  1.0000
  C   C9        1.0  0.36545  0.79596  0.81658  1.0000
  C   C10       1.0  0.55278  0.20384  0.18337  1.0000
  C   C11       1.0  0.35630  0.50362  0.73090  1.0000
  C   C12       1.0  0.62527  0.49634  0.26912  1.0000
  I   I1        1.0  0.93227  0.23264  0.91499  1.0000
  I   I2        1.0  0.01805  0.76742  0.08508  1.0000
  N   N1        1.0  0.38750  0.61941  0.82371  1.0000
  N   N2        1.0  0.56569  0.38047  0.17629  1.0000
  N   N3        1.0  0.17693  0.84756  0.42381  1.0000
  N   N4        1.0  0.74915  0.15286  0.57623  1.0000
