data_image0
_chemical_formula_structural       Fe2H16C16O12
_chemical_formula_sum              "Fe2 H16 C16 O12"
_cell_length_a       6.35326
_cell_length_b       7.29462
_cell_length_c       9.38789
_cell_angle_alpha    98.3688
_cell_angle_beta     109.773
_cell_angle_gamma    90.0231

_space_group_name_H-M_alt    "P 1"
_space_group_IT_number       1

loop_
  _space_group_symop_operation_xyz
  'x, y, z'

loop_
  _atom_site_type_symbol
  _atom_site_label
  _atom_site_symmetry_multiplicity
  _atom_site_fract_x
  _atom_site_fract_y
  _atom_site_fract_z
  _atom_site_occupancy
  Fe  Fe1       1.0  0.50000  1.00000  0.50000  1.0000
  Fe  Fe2       1.0  1.00000  0.50000  0.50000  1.0000
  H   H1        1.0  0.40823  0.06185  0.14380  1.0000
  H   H2        1.0  0.73525  0.56207  0.14357  1.0000
  H   H3        1.0  0.59176  0.93815  0.85619  1.0000
  H   H4        1.0  0.26476  0.43793  0.85643  1.0000
  H   H5        1.0  0.72537  0.12038  0.12076  1.0000
  H   H6        1.0  0.39561  0.62001  0.12099  1.0000
  H   H7        1.0  0.27462  0.87963  0.87923  1.0000
  H   H8        1.0  0.60439  0.37999  0.87901  1.0000
  H   H9        1.0  0.83356  0.10517  0.45793  1.0000
  H   H10       1.0  0.62442  0.60509  0.45778  1.0000
  H   H11       1.0  0.16645  0.89482  0.54207  1.0000
  H   H12       1.0  0.37558  0.39490  0.54221  1.0000
  H   H13       1.0  0.80733  0.88995  0.38271  1.0000
  H   H14       1.0  0.57539  0.38977  0.38265  1.0000
  H   H15       1.0  0.19266  0.11004  0.61729  1.0000
  H   H16       1.0  0.42461  0.61022  0.61735  1.0000
  C   C1        1.0  0.07424  0.10297  0.14764  1.0000
  C   C2        1.0  0.07340  0.60302  0.14769  1.0000
  C   C3        1.0  0.92575  0.89704  0.85236  1.0000
  C   C4        1.0  0.92662  0.39698  0.85232  1.0000
  C   C5        1.0  0.23021  0.03582  0.07957  1.0000
  C   C6        1.0  0.84927  0.53589  0.07952  1.0000
  C   C7        1.0  0.76979  0.96419  0.92043  1.0000
  C   C8        1.0  0.15074  0.46412  0.92048  1.0000
  C   C9        1.0  0.84382  0.06600  0.06665  1.0000
  C   C10       1.0  0.22295  0.56587  0.06674  1.0000
  C   C11       1.0  0.15618  0.93401  0.93335  1.0000
  C   C12       1.0  0.77707  0.43412  0.93326  1.0000
  C   C13       1.0  0.14724  0.21914  0.30005  1.0000
  C   C14       1.0  0.15246  0.71909  0.30004  1.0000
  C   C15       1.0  0.85275  0.78087  0.69995  1.0000
  C   C16       1.0  0.84755  0.28091  0.69996  1.0000
  O   O1        1.0  0.35499  0.22548  0.39317  1.0000
  O   O2        1.0  0.03738  0.72557  0.39291  1.0000
  O   O3        1.0  0.64500  0.77451  0.60683  1.0000
  O   O4        1.0  0.96263  0.27443  0.60710  1.0000
  O   O5        1.0  0.99902  0.31629  0.33305  1.0000
  O   O6        1.0  0.33411  0.81606  0.33328  1.0000
  O   O7        1.0  0.00097  0.68371  0.66695  1.0000
  O   O8        1.0  0.66591  0.18394  0.66673  1.0000
  O   O9        1.0  0.72320  0.00237  0.39247  1.0000
  O   O10       1.0  0.66937  0.50213  0.39243  1.0000
  O   O11       1.0  0.27680  0.99763  0.60753  1.0000
  O   O12       1.0  0.33063  0.49786  0.60757  1.0000
