data_image0
_chemical_formula_structural       Mg2H16C16O12
_chemical_formula_sum              "Mg2 H16 C16 O12"
_cell_length_a       6.51832
_cell_length_b       7.37574
_cell_length_c       9.63701
_cell_angle_alpha    98.0703
_cell_angle_beta     109.804
_cell_angle_gamma    90.0032

_space_group_name_H-M_alt    "P 1"
_space_group_IT_number       1

loop_
  _space_group_symop_operation_xyz
  'x, y, z'

loop_
  _atom_site_type_symbol
  _atom_site_label
  _atom_site_symmetry_multiplicity
  _atom_site_fract_x
  _atom_site_fract_y
  _atom_site_fract_z
  _atom_site_occupancy
  Mg  Mg1       1.0  0.49999  0.99999  0.50001  1.0000
  Mg  Mg2       1.0  0.99998  0.50000  0.49999  1.0000
  H   H1        1.0  0.39910  0.05785  0.13703  1.0000
  H   H2        1.0  0.73760  0.55731  0.13661  1.0000
  H   H3        1.0  0.60096  0.94215  0.86299  1.0000
  H   H4        1.0  0.26236  0.44269  0.86339  1.0000
  H   H5        1.0  0.73741  0.11948  0.12223  1.0000
  H   H6        1.0  0.38476  0.62009  0.12258  1.0000
  H   H7        1.0  0.26265  0.88055  0.87777  1.0000
  H   H8        1.0  0.61519  0.37991  0.87741  1.0000
  H   H9        1.0  0.83987  0.09687  0.43937  1.0000
  H   H10       1.0  0.59965  0.59694  0.43978  1.0000
  H   H11       1.0  0.16008  0.90313  0.56064  1.0000
  H   H12       1.0  0.40029  0.40305  0.56016  1.0000
  H   H13       1.0  0.82264  0.88460  0.37763  1.0000
  H   H14       1.0  0.55470  0.38472  0.37774  1.0000
  H   H15       1.0  0.17733  0.11540  0.62237  1.0000
  H   H16       1.0  0.44528  0.61526  0.62224  1.0000
  C   C1        1.0  0.07533  0.09995  0.14355  1.0000
  C   C2        1.0  0.06803  0.59994  0.14352  1.0000
  C   C3        1.0  0.92472  0.90006  0.85646  1.0000
  C   C4        1.0  0.93199  0.40006  0.85647  1.0000
  C   C5        1.0  0.22493  0.03362  0.07550  1.0000
  C   C6        1.0  0.85041  0.53331  0.07527  1.0000
  C   C7        1.0  0.77513  0.96639  0.92451  1.0000
  C   C8        1.0  0.14960  0.46670  0.92474  1.0000
  C   C9        1.0  0.85037  0.06561  0.06735  1.0000
  C   C10       1.0  0.21700  0.56596  0.06754  1.0000
  C   C11       1.0  0.14968  0.93441  0.93265  1.0000
  C   C12       1.0  0.78300  0.43403  0.93245  1.0000
  C   C13       1.0  0.15202  0.20994  0.29581  1.0000
  C   C14       1.0  0.14340  0.70997  0.29579  1.0000
  C   C15       1.0  0.84801  0.79007  0.70421  1.0000
  C   C16       1.0  0.85657  0.29002  0.70421  1.0000
  O   O1        1.0  0.35587  0.21235  0.37708  1.0000
  O   O2        1.0  0.02070  0.71219  0.37686  1.0000
  O   O3        1.0  0.64417  0.78765  0.62296  1.0000
  O   O4        1.0  0.97926  0.28781  0.62313  1.0000
  O   O5        1.0  0.01159  0.29618  0.33871  1.0000
  O   O6        1.0  0.32678  0.79626  0.33885  1.0000
  O   O7        1.0  0.98842  0.70383  0.66129  1.0000
  O   O8        1.0  0.67321  0.20371  0.66116  1.0000
  O   O9        1.0  0.73676  0.98962  0.39677  1.0000
  O   O10       1.0  0.65985  0.48969  0.39695  1.0000
  O   O11       1.0  0.26321  0.01037  0.60324  1.0000
  O   O12       1.0  0.34012  0.51029  0.60302  1.0000
