data_image0
_chemical_formula_structural       Li4H28C16S4O18F12
_chemical_formula_sum              "Li4 H28 C16 S4 O18 F12"
_cell_length_a       8.56737
_cell_length_b       10.7923
_cell_length_c       11.8292
_cell_angle_alpha    67.5024
_cell_angle_beta     89.7381
_cell_angle_gamma    71.6364

_space_group_name_H-M_alt    "P 1"
_space_group_IT_number       1

loop_
  _space_group_symop_operation_xyz
  'x, y, z'

loop_
  _atom_site_type_symbol
  _atom_site_label
  _atom_site_symmetry_multiplicity
  _atom_site_fract_x
  _atom_site_fract_y
  _atom_site_fract_z
  _atom_site_occupancy
  Li  Li1       1.0  0.30616  0.96209  0.16554  1.0000
  Li  Li2       1.0  0.69384  0.03791  0.83446  1.0000
  Li  Li3       1.0  0.25161  0.98064  0.55060  1.0000
  Li  Li4       1.0  0.74839  0.01935  0.44940  1.0000
  H   H1        1.0  0.06059  0.33647  0.90291  1.0000
  H   H2        1.0  0.93940  0.66353  0.09709  1.0000
  H   H3        1.0  0.06194  0.26917  0.06743  1.0000
  H   H4        1.0  0.93806  0.73083  0.93257  1.0000
  H   H5        1.0  0.92419  0.24060  0.97300  1.0000
  H   H6        1.0  0.07581  0.75940  0.02700  1.0000
  H   H7        1.0  0.15439  0.15581  0.81533  1.0000
  H   H8        1.0  0.84561  0.84419  0.18468  1.0000
  H   H9        1.0  0.04316  0.04754  0.90721  1.0000
  H   H10       1.0  0.95684  0.95246  0.09279  1.0000
  H   H11       1.0  0.29285  0.89267  0.86333  1.0000
  H   H12       1.0  0.70715  0.10733  0.13667  1.0000
  H   H13       1.0  0.42059  0.97445  0.90534  1.0000
  H   H14       1.0  0.57941  0.02555  0.09466  1.0000
  H   H15       1.0  0.58478  0.76765  0.04021  1.0000
  H   H16       1.0  0.41522  0.23235  0.95979  1.0000
  H   H17       1.0  0.47675  0.64369  0.06436  1.0000
  H   H18       1.0  0.52325  0.35631  0.93564  1.0000
  H   H19       1.0  0.43817  0.63490  0.27700  1.0000
  H   H20       1.0  0.56182  0.36510  0.72300  1.0000
  H   H21       1.0  0.65332  0.59219  0.25757  1.0000
  H   H22       1.0  0.34667  0.40780  0.74243  1.0000
  H   H23       1.0  0.71833  0.68343  0.40273  1.0000
  H   H24       1.0  0.28167  0.31657  0.59727  1.0000
  H   H25       1.0  0.50901  0.71359  0.43833  1.0000
  H   H26       1.0  0.49099  0.28641  0.56167  1.0000
  H   H27       1.0  0.58936  0.85756  0.38458  1.0000
  H   H28       1.0  0.41064  0.14244  0.61542  1.0000
  C   C1        1.0  0.04774  0.24858  0.98503  1.0000
  C   C2        1.0  0.95226  0.75142  0.01498  1.0000
  C   C3        1.0  0.15930  0.07126  0.90599  1.0000
  C   C4        1.0  0.84070  0.92874  0.09401  1.0000
  C   C5        1.0  0.30996  0.94277  0.92564  1.0000
  C   C6        1.0  0.69004  0.05723  0.07436  1.0000
  C   C7        1.0  0.48772  0.72986  0.08873  1.0000
  C   C8        1.0  0.51228  0.27013  0.91127  1.0000
  C   C9        1.0  0.53094  0.67760  0.22642  1.0000
  C   C10       1.0  0.46906  0.32240  0.77358  1.0000
  C   C11       1.0  0.59078  0.75983  0.37639  1.0000
  C   C12       1.0  0.40922  0.24017  0.62361  1.0000
  C   C13       1.0  0.28875  0.35931  0.22872  1.0000
  C   C14       1.0  0.71126  0.64069  0.77128  1.0000
  C   C15       1.0  0.11768  0.66401  0.45255  1.0000
  C   C16       1.0  0.88232  0.33599  0.54745  1.0000
  S   S1        1.0  0.38302  0.16150  0.30528  1.0000
  S   S2        1.0  0.61698  0.83851  0.69472  1.0000
  S   S3        1.0  0.08923  0.85715  0.38965  1.0000
  S   S4        1.0  0.91077  0.14285  0.61035  1.0000
  O   O1        1.0  0.17590  0.11748  0.00277  1.0000
  O   O2        1.0  0.82409  0.88253  0.99723  1.0000
  O   O3        1.0  0.33310  0.84625  0.05305  1.0000
  O   O4        1.0  0.66690  0.15375  0.94696  1.0000
  O   O5        1.0  0.53440  0.79770  0.24994  1.0000
  O   O6        1.0  0.46561  0.20230  0.75006  1.0000
  O   O7        1.0  0.33601  0.11314  0.21570  1.0000
  O   O8        1.0  0.66399  0.88687  0.78430  1.0000
  O   O9        1.0  0.30573  0.12671  0.41795  1.0000
  O   O10       1.0  0.69427  0.87329  0.58204  1.0000
  O   O11       1.0  0.55966  0.13886  0.32366  1.0000
  O   O12       1.0  0.44034  0.86114  0.67634  1.0000
  O   O13       1.0  0.16735  0.87899  0.27764  1.0000
  O   O14       1.0  0.83265  0.12101  0.72236  1.0000
  O   O15       1.0  0.17479  0.86883  0.48905  1.0000
  O   O16       1.0  0.82521  0.13117  0.51095  1.0000
  O   O17       1.0  0.90963  0.92697  0.36747  1.0000
  O   O18       1.0  0.09037  0.07303  0.63253  1.0000
  F   F1        1.0  0.12148  0.39919  0.20446  1.0000
  F   F2        1.0  0.87852  0.60082  0.79554  1.0000
  F   F3        1.0  0.32332  0.42023  0.30204  1.0000
  F   F4        1.0  0.67669  0.57977  0.69796  1.0000
  F   F5        1.0  0.34855  0.41117  0.12013  1.0000
  F   F6        1.0  0.65145  0.58883  0.87987  1.0000
  F   F7        1.0  0.28195  0.58549  0.47565  1.0000
  F   F8        1.0  0.71805  0.41451  0.52435  1.0000
  F   F9        1.0  0.05144  0.62472  0.55931  1.0000
  F   F10       1.0  0.94856  0.37528  0.44069  1.0000
  F   F11       1.0  0.04412  0.63239  0.37083  1.0000
  F   F12       1.0  0.95587  0.36761  0.62917  1.0000
