data_image0
_chemical_formula_structural       Ag2H16C16S4N8O16
_chemical_formula_sum              "Ag2 H16 C16 S4 N8 O16"
_cell_length_a       7.19218
_cell_length_b       8.69577
_cell_length_c       12.5107
_cell_angle_alpha    82.569
_cell_angle_beta     73.306
_cell_angle_gamma    65.5649

_space_group_name_H-M_alt    "P 1"
_space_group_IT_number       1

loop_
  _space_group_symop_operation_xyz
  'x, y, z'

loop_
  _atom_site_type_symbol
  _atom_site_label
  _atom_site_symmetry_multiplicity
  _atom_site_fract_x
  _atom_site_fract_y
  _atom_site_fract_z
  _atom_site_occupancy
  Ag  Ag1       1.0  0.96808  0.74997  0.74998  1.0000
  Ag  Ag2       1.0  0.03194  0.25003  0.25001  1.0000
  H   H1        1.0  0.16715  0.01406  0.74222  1.0000
  H   H2        1.0  0.42349  0.48598  0.75777  1.0000
  H   H3        1.0  0.83280  0.98596  0.25786  1.0000
  H   H4        1.0  0.57655  0.51401  0.24218  1.0000
  H   H5        1.0  0.51053  0.01433  0.74839  1.0000
  H   H6        1.0  0.77339  0.48563  0.75148  1.0000
  H   H7        1.0  0.48944  0.98568  0.25168  1.0000
  H   H8        1.0  0.22667  0.51436  0.24846  1.0000
  H   H9        1.0  0.04104  0.37215  0.82774  1.0000
  H   H10       1.0  0.74098  0.12783  0.67225  1.0000
  H   H11       1.0  0.95890  0.62795  0.17224  1.0000
  H   H12       1.0  0.25909  0.87207  0.32774  1.0000
  H   H13       1.0  0.93415  0.79935  0.99325  1.0000
  H   H14       1.0  0.22664  0.70062  0.50673  1.0000
  H   H15       1.0  0.06578  0.20073  0.00672  1.0000
  H   H16       1.0  0.77341  0.29929  0.49327  1.0000
  C   C1        1.0  0.30117  0.89553  0.74603  1.0000
  C   C2        1.0  0.44279  0.60449  0.75392  1.0000
  C   C3        1.0  0.69881  0.10447  0.25401  1.0000
  C   C4        1.0  0.55723  0.39552  0.24606  1.0000
  C   C5        1.0  0.49469  0.89536  0.74720  1.0000
  C   C6        1.0  0.63738  0.60463  0.75266  1.0000
  C   C7        1.0  0.50531  0.10464  0.25284  1.0000
  C   C8        1.0  0.36266  0.39538  0.24732  1.0000
  C   C9        1.0  0.02120  0.42955  0.90496  1.0000
  C   C10       1.0  0.85569  0.07043  0.59503  1.0000
  C   C11       1.0  0.97874  0.57052  0.09502  1.0000
  C   C12       1.0  0.14436  0.92948  0.40497  1.0000
  C   C13       1.0  0.96311  0.66584  0.99706  1.0000
  C   C14       1.0  0.12598  0.83415  0.50291  1.0000
  C   C15       1.0  0.03684  0.33423  0.00292  1.0000
  C   C16       1.0  0.87406  0.16576  0.49708  1.0000
  S   S1        1.0  0.64060  0.15818  0.91673  1.0000
  S   S2        1.0  0.21559  0.34167  0.58325  1.0000
  S   S3        1.0  0.35936  0.84192  0.08327  1.0000
  S   S4        1.0  0.78443  0.65824  0.41678  1.0000
  N   N1        1.0  0.27829  0.75002  0.75002  1.0000
  N   N2        1.0  0.72169  0.24998  0.24999  1.0000
  N   N3        1.0  0.66040  0.75000  0.74990  1.0000
  N   N4        1.0  0.33963  0.25000  0.25010  1.0000
  N   N5        1.0  0.98385  0.59368  0.90380  1.0000
  N   N6        1.0  0.98125  0.90627  0.59615  1.0000
  N   N7        1.0  0.01612  0.40639  0.09618  1.0000
  N   N8        1.0  0.01880  0.09364  0.40384  1.0000
  O   O1        1.0  0.50701  0.07388  0.02239  1.0000
  O   O2        1.0  0.10338  0.42625  0.47758  1.0000
  O   O3        1.0  0.49301  0.92618  0.97761  1.0000
  O   O4        1.0  0.89669  0.57369  0.52244  1.0000
  O   O5        1.0  0.84726  0.02187  0.87503  1.0000
  O   O6        1.0  0.24389  0.47793  0.62523  1.0000
  O   O7        1.0  0.15270  0.97824  0.12493  1.0000
  O   O8        1.0  0.75613  0.52196  0.37483  1.0000
  O   O9        1.0  0.51633  0.21848  0.83419  1.0000
  O   O10       1.0  0.06925  0.28105  0.66559  1.0000
  O   O11       1.0  0.48357  0.78161  0.16582  1.0000
  O   O12       1.0  0.93074  0.71886  0.33442  1.0000
  O   O13       1.0  0.63837  0.28683  0.98056  1.0000
  O   O14       1.0  0.40601  0.21327  0.51932  1.0000
  O   O15       1.0  0.36159  0.71327  0.01943  1.0000
  O   O16       1.0  0.59402  0.78664  0.48070  1.0000
