data_image0
_chemical_formula_structural       Zn2H30C40N16O10
_chemical_formula_sum              "Zn2 H30 C40 N16 O10"
_cell_length_a       8.91846
_cell_length_b       9.97866
_cell_length_c       13.8074
_cell_angle_alpha    90.1582
_cell_angle_beta     106.736
_cell_angle_gamma    116.168

_space_group_name_H-M_alt    "P 1"
_space_group_IT_number       1

loop_
  _space_group_symop_operation_xyz
  'x, y, z'

loop_
  _atom_site_type_symbol
  _atom_site_label
  _atom_site_symmetry_multiplicity
  _atom_site_fract_x
  _atom_site_fract_y
  _atom_site_fract_z
  _atom_site_occupancy
  Zn  Zn1       1.0  0.74552  0.08990  0.92311  1.0000
  Zn  Zn2       1.0  0.25447  0.91010  0.07689  1.0000
  H   H1        1.0  0.80032  0.68958  0.74049  1.0000
  H   H2        1.0  0.19968  0.31042  0.25951  1.0000
  H   H3        1.0  0.48855  0.63525  0.66775  1.0000
  H   H4        1.0  0.51145  0.36475  0.33225  1.0000
  H   H5        1.0  0.36427  0.17907  0.56068  1.0000
  H   H6        1.0  0.63573  0.82093  0.43932  1.0000
  H   H7        1.0  0.68615  0.25479  0.63701  1.0000
  H   H8        1.0  0.31385  0.74521  0.36299  1.0000
  H   H9        1.0  0.60738  0.20009  0.45343  1.0000
  H   H10       1.0  0.39262  0.79991  0.54657  1.0000
  H   H11       1.0  0.33856  0.05060  0.30177  1.0000
  H   H12       1.0  0.66144  0.94940  0.69823  1.0000
  H   H13       1.0  0.62834  0.95842  0.14983  1.0000
  H   H14       1.0  0.37167  0.04158  0.85017  1.0000
  H   H15       1.0  0.91012  0.10515  0.29501  1.0000
  H   H16       1.0  0.08988  0.89485  0.70500  1.0000
  H   H17       1.0  0.09710  0.53419  0.71705  1.0000
  H   H18       1.0  0.90290  0.46581  0.28295  1.0000
  H   H19       1.0  0.30300  0.52636  0.74830  1.0000
  H   H20       1.0  0.69700  0.47364  0.25170  1.0000
  H   H21       1.0  0.05879  0.03618  0.85347  1.0000
  H   H22       1.0  0.94121  0.96382  0.14653  1.0000
  H   H23       1.0  0.90893  0.38505  0.82038  1.0000
  H   H24       1.0  0.09107  0.61495  0.17962  1.0000
  H   H25       1.0  0.77219  0.59514  0.95230  1.0000
  H   H26       1.0  0.22781  0.40486  0.04769  1.0000
  H   H27       1.0  0.05060  0.18734  0.08798  1.0000
  H   H28       1.0  0.94939  0.81266  0.91202  1.0000
  H   H29       1.0  0.90172  0.23884  0.10068  1.0000
  H   H30       1.0  0.09828  0.76116  0.89932  1.0000
  C   C1        1.0  0.70123  0.57712  0.69993  1.0000
  C   C2        1.0  0.29877  0.42287  0.30007  1.0000
  C   C3        1.0  0.52479  0.54591  0.65972  1.0000
  C   C4        1.0  0.47521  0.45409  0.34028  1.0000
  C   C5        1.0  0.39915  0.40067  0.60850  1.0000
  C   C6        1.0  0.60085  0.59933  0.39150  1.0000
  C   C7        1.0  0.45802  0.29371  0.59901  1.0000
  C   C8        1.0  0.54198  0.70629  0.40099  1.0000
  C   C9        1.0  0.63680  0.33624  0.64215  1.0000
  C   C10       1.0  0.36320  0.66376  0.35785  1.0000
  C   C11       1.0  0.21078  0.35587  0.56495  1.0000
  C   C12       1.0  0.78922  0.64412  0.43505  1.0000
  C   C13       1.0  0.94240  0.25362  0.47071  1.0000
  C   C14       1.0  0.05761  0.74637  0.52929  1.0000
  C   C15       1.0  0.78102  0.16473  0.38557  1.0000
  C   C16       1.0  0.21898  0.83527  0.61443  1.0000
  C   C17       1.0  0.61698  0.14780  0.38766  1.0000
  C   C18       1.0  0.38302  0.85220  0.61234  1.0000
  C   C19       1.0  0.46802  0.06447  0.30403  1.0000
  C   C20       1.0  0.53197  0.93553  0.69597  1.0000
  C   C21       1.0  0.62981  0.01293  0.21892  1.0000
  C   C22       1.0  0.37019  0.98708  0.78107  1.0000
  C   C23       1.0  0.78559  0.09438  0.29938  1.0000
  C   C24       1.0  0.21441  0.90562  0.70062  1.0000
  C   C25       1.0  0.15975  0.46216  0.71416  1.0000
  C   C26       1.0  0.84025  0.53784  0.28584  1.0000
  C   C27       1.0  0.04904  0.13740  0.83143  1.0000
  C   C28       1.0  0.95096  0.86260  0.16857  1.0000
  C   C29       1.0  0.97025  0.31284  0.81782  1.0000
  C   C30       1.0  0.02975  0.68716  0.18218  1.0000
  C   C31       1.0  0.64848  0.79630  0.93930  1.0000
  C   C32       1.0  0.35152  0.20370  0.06070  1.0000
  C   C33       1.0  0.30241  0.67173  0.98252  1.0000
  C   C34       1.0  0.69759  0.32827  0.01748  1.0000
  C   C35       1.0  0.41017  0.58774  0.99337  1.0000
  C   C36       1.0  0.58983  0.41226  0.00664  1.0000
  C   C37       1.0  0.56571  0.64139  0.96689  1.0000
  C   C38       1.0  0.43430  0.35861  0.03311  1.0000
  C   C39       1.0  0.65194  0.55221  0.97295  1.0000
  C   C40       1.0  0.34806  0.44779  0.02705  1.0000
  N   N1        1.0  0.75801  0.47484  0.69223  1.0000
  N   N2        1.0  0.24199  0.52517  0.30777  1.0000
  N   N3        1.0  0.10386  0.26539  0.47688  1.0000
  N   N4        1.0  0.89614  0.73461  0.52312  1.0000
  N   N5        1.0  0.11538  0.39813  0.60920  1.0000
  N   N6        1.0  0.88462  0.60187  0.39080  1.0000
  N   N7        1.0  0.94364  0.33158  0.55018  1.0000
  N   N8        1.0  0.05636  0.66842  0.44982  1.0000
  N   N9        1.0  0.47354  0.99860  0.22090  1.0000
  N   N10       1.0  0.52646  0.00141  0.77910  1.0000
  N   N11       1.0  0.09258  0.34045  0.77198  1.0000
  N   N12       1.0  0.90742  0.65955  0.22803  1.0000
  N   N13       1.0  0.14464  0.23023  0.77955  1.0000
  N   N14       1.0  0.85536  0.76977  0.22045  1.0000
  N   N15       1.0  0.93942  0.18410  0.85629  1.0000
  N   N16       1.0  0.06058  0.81590  0.14371  1.0000
  O   O1        1.0  0.60383  0.89171  0.96789  1.0000
  O   O2        1.0  0.39617  0.10829  0.03210  1.0000
  O   O3        1.0  0.75990  0.82950  0.89194  1.0000
  O   O4        1.0  0.24010  0.17050  0.10805  1.0000
  O   O5        1.0  0.31469  0.73825  0.06588  1.0000
  O   O6        1.0  0.68531  0.26175  0.93412  1.0000
  O   O7        1.0  0.20179  0.66206  0.89410  1.0000
  O   O8        1.0  0.79821  0.33794  0.10590  1.0000
  O   O9        1.0  0.92407  0.15427  0.07899  1.0000
  O   O10       1.0  0.07593  0.84573  0.92101  1.0000
