data_image0
_chemical_formula_structural       Hg4H28C36S8N16
_chemical_formula_sum              "Hg4 H28 C36 S8 N16"
_cell_length_a       8.07211
_cell_length_b       11.8433
_cell_length_c       14.7746
_cell_angle_alpha    112.159
_cell_angle_beta     90.0385
_cell_angle_gamma    109.879

_space_group_name_H-M_alt    "P 1"
_space_group_IT_number       1

loop_
  _space_group_symop_operation_xyz
  'x, y, z'

loop_
  _atom_site_type_symbol
  _atom_site_label
  _atom_site_symmetry_multiplicity
  _atom_site_fract_x
  _atom_site_fract_y
  _atom_site_fract_z
  _atom_site_occupancy
  Hg  Hg1       1.0  0.34279  0.83155  0.79580  1.0000
  Hg  Hg2       1.0  0.51123  0.16878  0.70444  1.0000
  Hg  Hg3       1.0  0.65721  0.16845  0.20420  1.0000
  Hg  Hg4       1.0  0.48877  0.83122  0.29556  1.0000
  H   H1        1.0  0.08665  0.51042  0.69386  1.0000
  H   H2        1.0  0.57616  0.48948  0.80623  1.0000
  H   H3        1.0  0.91334  0.48958  0.30614  1.0000
  H   H4        1.0  0.42385  0.51052  0.19377  1.0000
  H   H5        1.0  0.80935  0.35483  0.57751  1.0000
  H   H6        1.0  0.45449  0.64533  0.92240  1.0000
  H   H7        1.0  0.19065  0.64517  0.42249  1.0000
  H   H8        1.0  0.54552  0.35467  0.07761  1.0000
  H   H9        1.0  0.65095  0.43874  0.48540  1.0000
  H   H10       1.0  0.21242  0.56175  0.01451  1.0000
  H   H11       1.0  0.34905  0.56126  0.51460  1.0000
  H   H12       1.0  0.78759  0.43825  0.98549  1.0000
  H   H13       1.0  0.77884  0.67650  0.51581  1.0000
  H   H14       1.0  0.10251  0.32401  0.98422  1.0000
  H   H15       1.0  0.22116  0.32350  0.48419  1.0000
  H   H16       1.0  0.89749  0.67599  0.01578  1.0000
  H   H17       1.0  0.87759  0.93533  0.61574  1.0000
  H   H18       1.0  0.94229  0.06500  0.88426  1.0000
  H   H19       1.0  0.12241  0.06467  0.38426  1.0000
  H   H20       1.0  0.05771  0.93500  0.11574  1.0000
  H   H21       1.0  0.97396  0.85647  0.51412  1.0000
  H   H22       1.0  0.11743  0.14407  0.98597  1.0000
  H   H23       1.0  0.02605  0.14353  0.48587  1.0000
  H   H24       1.0  0.88257  0.85593  0.01403  1.0000
  H   H25       1.0  0.10013  0.01724  0.60509  1.0000
  H   H26       1.0  0.08309  0.98321  0.89527  1.0000
  H   H27       1.0  0.89987  0.98276  0.39490  1.0000
  H   H28       1.0  0.91691  0.01679  0.10473  1.0000
  C   C1        1.0  0.01318  0.54504  0.65509  1.0000
  C   C2        1.0  0.46788  0.45497  0.84487  1.0000
  C   C3        1.0  0.98682  0.45496  0.34492  1.0000
  C   C4        1.0  0.53212  0.54502  0.15513  1.0000
  C   C5        1.0  0.85782  0.45753  0.58905  1.0000
  C   C6        1.0  0.40016  0.54264  0.91086  1.0000
  C   C7        1.0  0.14217  0.54247  0.41095  1.0000
  C   C8        1.0  0.59985  0.45736  0.08914  1.0000
  C   C9        1.0  0.77159  0.50465  0.53836  1.0000
  C   C10       1.0  0.26688  0.49568  0.96153  1.0000
  C   C11       1.0  0.22841  0.49535  0.46164  1.0000
  C   C12       1.0  0.73312  0.50432  0.03848  1.0000
  C   C13       1.0  0.84220  0.63730  0.55541  1.0000
  C   C14       1.0  0.20483  0.36305  0.94453  1.0000
  C   C15       1.0  0.15780  0.36270  0.44459  1.0000
  C   C16       1.0  0.79517  0.63695  0.05547  1.0000
  C   C17       1.0  0.99542  0.71973  0.62500  1.0000
  C   C18       1.0  0.27531  0.28039  0.87492  1.0000
  C   C19       1.0  0.00457  0.28027  0.37500  1.0000
  C   C20       1.0  0.72468  0.71961  0.12508  1.0000
  C   C21       1.0  0.06461  0.86316  0.65338  1.0000
  C   C22       1.0  0.20132  0.13702  0.84669  1.0000
  C   C23       1.0  0.93538  0.13684  0.34662  1.0000
  C   C24       1.0  0.79869  0.86298  0.15331  1.0000
  C   C25       1.0  0.00115  0.92071  0.59299  1.0000
  C   C26       1.0  0.08050  0.07967  0.90713  1.0000
  C   C27       1.0  0.99885  0.07929  0.40701  1.0000
  C   C28       1.0  0.91951  0.92033  0.09287  1.0000
  C   C29       1.0  0.69279  0.75415  0.78963  1.0000
  C   C30       1.0  0.93833  0.24553  0.71016  1.0000
  C   C31       1.0  0.30721  0.24585  0.21036  1.0000
  C   C32       1.0  0.06166  0.75447  0.28983  1.0000
  C   C33       1.0  0.36856  0.86651  0.02212  1.0000
  C   C34       1.0  0.50267  0.13338  0.47794  1.0000
  C   C35       1.0  0.63144  0.13349  0.97788  1.0000
  C   C36       1.0  0.49733  0.86662  0.52206  1.0000
  S   S1        1.0  0.60337  0.80143  0.71563  1.0000
  S   S2        1.0  0.80206  0.19848  0.78433  1.0000
  S   S3        1.0  0.39663  0.19858  0.28437  1.0000
  S   S4        1.0  0.19794  0.80152  0.21567  1.0000
  S   S5        1.0  0.19500  0.77959  0.93419  1.0000
  S   S6        1.0  0.41598  0.22051  0.56565  1.0000
  S   S7        1.0  0.80501  0.22041  0.06582  1.0000
  S   S8        1.0  0.58402  0.77949  0.43435  1.0000
  N   N1        1.0  0.07859  0.67228  0.67276  1.0000
  N   N2        1.0  0.40590  0.32772  0.82720  1.0000
  N   N3        1.0  0.92140  0.32772  0.32724  1.0000
  N   N4        1.0  0.59410  0.67228  0.17280  1.0000
  N   N5        1.0  0.17421  0.93406  0.73542  1.0000
  N   N6        1.0  0.24011  0.06608  0.76472  1.0000
  N   N7        1.0  0.82578  0.06594  0.26458  1.0000
  N   N8        1.0  0.75989  0.93392  0.23527  1.0000
  N   N9        1.0  0.76432  0.72092  0.83901  1.0000
  N   N10       1.0  0.04282  0.27858  0.66066  1.0000
  N   N11       1.0  0.23567  0.27908  0.16098  1.0000
  N   N12       1.0  0.95717  0.72142  0.33933  1.0000
  N   N13       1.0  0.48951  0.92645  0.08730  1.0000
  N   N14       1.0  0.56366  0.07327  0.41288  1.0000
  N   N15       1.0  0.51050  0.07355  0.91270  1.0000
  N   N16       1.0  0.43634  0.92672  0.58712  1.0000
