data_image0
_chemical_formula_structural       Hg2H28C32S4N12
_chemical_formula_sum              "Hg2 H28 C32 S4 N12"
_cell_length_a       6.89859
_cell_length_b       10.9346
_cell_length_c       13.3642
_cell_angle_alpha    93.0736
_cell_angle_beta     104.957
_cell_angle_gamma    108.398

_space_group_name_H-M_alt    "P 1"
_space_group_IT_number       1

loop_
  _space_group_symop_operation_xyz
  'x, y, z'

loop_
  _atom_site_type_symbol
  _atom_site_label
  _atom_site_symmetry_multiplicity
  _atom_site_fract_x
  _atom_site_fract_y
  _atom_site_fract_z
  _atom_site_occupancy
  Hg  Hg1       1.0  0.46172  0.75002  0.75007  1.0000
  Hg  Hg2       1.0  0.53828  0.24998  0.24993  1.0000
  H   H1        1.0  0.09230  0.75273  0.55508  1.0000
  H   H2        1.0  0.28436  0.74728  0.94498  1.0000
  H   H3        1.0  0.90770  0.24727  0.44492  1.0000
  H   H4        1.0  0.71564  0.25272  0.05502  1.0000
  H   H5        1.0  0.79869  0.84010  0.49330  1.0000
  H   H6        1.0  0.96509  0.65968  0.00674  1.0000
  H   H7        1.0  0.20132  0.15990  0.50670  1.0000
  H   H8        1.0  0.03490  0.34031  0.99326  1.0000
  H   H9        1.0  0.05142  0.10258  0.78626  1.0000
  H   H10       1.0  0.66230  0.39751  0.71363  1.0000
  H   H11       1.0  0.94860  0.89742  0.21374  1.0000
  H   H12       1.0  0.33770  0.60249  0.28637  1.0000
  H   H13       1.0  0.33535  0.00447  0.83659  1.0000
  H   H14       1.0  0.99418  0.49575  0.66336  1.0000
  H   H15       1.0  0.66466  0.99553  0.16341  1.0000
  H   H16       1.0  0.00582  0.50425  0.33664  1.0000
  H   H17       1.0  0.63807  0.20587  0.60909  1.0000
  H   H18       1.0  0.32278  0.29411  0.89091  1.0000
  H   H19       1.0  0.36194  0.79413  0.39092  1.0000
  H   H20       1.0  0.67722  0.70588  0.10909  1.0000
  H   H21       1.0  0.92194  0.24136  0.65044  1.0000
  H   H22       1.0  0.52978  0.25861  0.84953  1.0000
  H   H23       1.0  0.07807  0.75864  0.34956  1.0000
  H   H24       1.0  0.47022  0.74139  0.15046  1.0000
  H   H25       1.0  0.76596  0.16823  0.73212  1.0000
  H   H26       1.0  0.36533  0.33177  0.76785  1.0000
  H   H27       1.0  0.23405  0.83177  0.26787  1.0000
  H   H28       1.0  0.63467  0.66822  0.23215  1.0000
  C   C1        1.0  0.07865  0.83095  0.60400  1.0000
  C   C2        1.0  0.14357  0.66903  0.89604  1.0000
  C   C3        1.0  0.92135  0.16905  0.39599  1.0000
  C   C4        1.0  0.85643  0.33097  0.10396  1.0000
  C   C5        1.0  0.91424  0.87968  0.56978  1.0000
  C   C6        1.0  0.96467  0.62023  0.93023  1.0000
  C   C7        1.0  0.08576  0.12032  0.43021  1.0000
  C   C8        1.0  0.03533  0.37976  0.06977  1.0000
  C   C9        1.0  0.90150  0.98120  0.63393  1.0000
  C   C10       1.0  0.78620  0.51874  0.86604  1.0000
  C   C11       1.0  0.09851  0.01880  0.36607  1.0000
  C   C12       1.0  0.21379  0.48126  0.13396  1.0000
  C   C13       1.0  0.05527  0.02619  0.73202  1.0000
  C   C14       1.0  0.79689  0.47386  0.76792  1.0000
  C   C15       1.0  0.94473  0.97382  0.26798  1.0000
  C   C16       1.0  0.20311  0.52614  0.23208  1.0000
  C   C17       1.0  0.21410  0.97115  0.76089  1.0000
  C   C18       1.0  0.98189  0.52895  0.73908  1.0000
  C   C19       1.0  0.78591  0.02885  0.23911  1.0000
  C   C20       1.0  0.01810  0.47105  0.26092  1.0000
  C   C21       1.0  0.73570  0.04067  0.59728  1.0000
  C   C22       1.0  0.59759  0.45929  0.90268  1.0000
  C   C23       1.0  0.26430  0.95933  0.40272  1.0000
  C   C24       1.0  0.40240  0.54070  0.09732  1.0000
  C   C25       1.0  0.76609  0.17198  0.64989  1.0000
  C   C26       1.0  0.44390  0.32799  0.85008  1.0000
  C   C27       1.0  0.23392  0.82802  0.35011  1.0000
  C   C28       1.0  0.55610  0.67200  0.14992  1.0000
  C   C29       1.0  0.32009  0.48885  0.59435  1.0000
  C   C30       1.0  0.73663  0.01117  0.90578  1.0000
  C   C31       1.0  0.67990  0.51115  0.40565  1.0000
  C   C32       1.0  0.26336  0.98884  0.09422  1.0000
  S   S1        1.0  0.43724  0.64091  0.57725  1.0000
  S   S2        1.0  0.71903  0.85917  0.92293  1.0000
  S   S3        1.0  0.56277  0.35910  0.42275  1.0000
  S   S4        1.0  0.28096  0.14085  0.07707  1.0000
  N   N1        1.0  0.22782  0.87651  0.69749  1.0000
  N   N2        1.0  0.15370  0.62356  0.80253  1.0000
  N   N3        1.0  0.77219  0.12349  0.30251  1.0000
  N   N4        1.0  0.84629  0.37644  0.19747  1.0000
  N   N5        1.0  0.57505  0.97121  0.51796  1.0000
  N   N6        1.0  0.58589  0.52877  0.98203  1.0000
  N   N7        1.0  0.42496  0.02879  0.48204  1.0000
  N   N8        1.0  0.41410  0.47122  0.01797  1.0000
  N   N9        1.0  0.23765  0.37959  0.60381  1.0000
  N   N10       1.0  0.75382  0.12039  0.89627  1.0000
  N   N11       1.0  0.76234  0.62042  0.39619  1.0000
  N   N12       1.0  0.24618  0.87962  0.10373  1.0000
