data_image0
_chemical_formula_structural       Na2Co2H28C20N4O16
_chemical_formula_sum              "Na2 Co2 H28 C20 N4 O16"
_cell_length_a       6.32879
_cell_length_b       8.72647
_cell_length_c       13.05
_cell_angle_alpha    74.2341
_cell_angle_beta     75.9343
_cell_angle_gamma    68.7657

_space_group_name_H-M_alt    "P 1"
_space_group_IT_number       1

loop_
  _space_group_symop_operation_xyz
  'x, y, z'

loop_
  _atom_site_type_symbol
  _atom_site_label
  _atom_site_symmetry_multiplicity
  _atom_site_fract_x
  _atom_site_fract_y
  _atom_site_fract_z
  _atom_site_occupancy
  Na  Na1       1.0  0.48592  0.24984  0.74993  1.0000
  Na  Na2       1.0  0.51408  0.75016  0.25007  1.0000
  Co  Co1       1.0  1.00000  0.50000  0.50000  1.0000
  Co  Co2       1.0  1.00000  0.00000  1.00000  1.0000
  H   H1        1.0  0.98651  0.88901  0.43342  1.0000
  H   H2        1.0  0.30885  0.61094  0.06649  1.0000
  H   H3        1.0  0.01349  0.11099  0.56658  1.0000
  H   H4        1.0  0.69115  0.38906  0.93351  1.0000
  H   H5        1.0  0.73370  0.94239  0.53150  1.0000
  H   H6        1.0  0.20723  0.55756  0.96857  1.0000
  H   H7        1.0  0.26630  0.05761  0.46850  1.0000
  H   H8        1.0  0.79277  0.44244  0.03143  1.0000
  H   H9        1.0  0.66611  0.78576  0.68024  1.0000
  H   H10       1.0  0.13207  0.71410  0.81986  1.0000
  H   H11       1.0  0.33390  0.21424  0.31976  1.0000
  H   H12       1.0  0.86793  0.28590  0.18014  1.0000
  H   H13       1.0  0.90444  0.63352  0.73702  1.0000
  H   H14       1.0  0.27453  0.86680  0.76302  1.0000
  H   H15       1.0  0.09557  0.36648  0.26298  1.0000
  H   H16       1.0  0.72547  0.13320  0.23698  1.0000
  H   H17       1.0  0.29565  0.70148  0.50547  1.0000
  H   H18       1.0  0.50256  0.79847  0.99430  1.0000
  H   H19       1.0  0.70435  0.29852  0.49454  1.0000
  H   H20       1.0  0.49744  0.20153  0.00570  1.0000
  H   H21       1.0  0.25493  0.58708  0.64041  1.0000
  H   H22       1.0  0.48256  0.91279  0.85937  1.0000
  H   H23       1.0  0.74506  0.41291  0.35959  1.0000
  H   H24       1.0  0.51744  0.08721  0.14063  1.0000
  H   H25       1.0  0.14169  0.81144  0.61368  1.0000
  H   H26       1.0  0.56643  0.68845  0.88615  1.0000
  H   H27       1.0  0.85831  0.18856  0.38632  1.0000
  H   H28       1.0  0.43358  0.31155  0.11385  1.0000
  C   C1        1.0  0.85015  0.84339  0.48828  1.0000
  C   C2        1.0  0.18160  0.65655  0.01179  1.0000
  C   C3        1.0  0.14985  0.15661  0.51172  1.0000
  C   C4        1.0  0.81840  0.34345  0.98821  1.0000
  C   C5        1.0  0.70644  0.52631  0.68789  1.0000
  C   C6        1.0  0.92019  0.97336  0.81240  1.0000
  C   C7        1.0  0.29356  0.47369  0.31211  1.0000
  C   C8        1.0  0.07981  0.02664  0.18759  1.0000
  C   C9        1.0  0.72606  0.80678  0.41686  1.0000
  C   C10       1.0  0.94967  0.69302  0.08345  1.0000
  C   C11       1.0  0.27394  0.19322  0.58314  1.0000
  C   C12       1.0  0.05033  0.30698  0.91655  1.0000
  C   C13       1.0  0.80445  0.66745  0.67164  1.0000
  C   C14       1.0  0.14323  0.83253  0.82847  1.0000
  C   C15       1.0  0.19555  0.33255  0.32836  1.0000
  C   C16       1.0  0.85677  0.16747  0.17153  1.0000
  C   C17       1.0  0.17811  0.69820  0.58222  1.0000
  C   C18       1.0  0.45841  0.80174  0.91760  1.0000
  C   C19       1.0  0.82189  0.30181  0.41778  1.0000
  C   C20       1.0  0.54159  0.19826  0.08240  1.0000
  N   N1        1.0  0.95896  0.68951  0.56561  1.0000
  N   N2        1.0  0.21388  0.81047  0.93440  1.0000
  N   N3        1.0  0.04104  0.31049  0.43439  1.0000
  N   N4        1.0  0.78612  0.18953  0.06560  1.0000
  O   O1        1.0  0.76867  0.64914  0.41725  1.0000
  O   O2        1.0  0.83518  0.85066  0.08310  1.0000
  O   O3        1.0  0.23133  0.35086  0.58274  1.0000
  O   O4        1.0  0.16482  0.14934  0.91689  1.0000
  O   O5        1.0  0.77376  0.43974  0.61251  1.0000
  O   O6        1.0  0.82561  0.05991  0.88780  1.0000
  O   O7        1.0  0.22624  0.56026  0.38749  1.0000
  O   O8        1.0  0.17439  0.94009  0.11220  1.0000
  O   O9        1.0  0.59648  0.92184  0.35826  1.0000
  O   O10       1.0  0.87659  0.57792  0.14218  1.0000
  O   O11       1.0  0.40352  0.07816  0.64174  1.0000
  O   O12       1.0  0.12340  0.42208  0.85782  1.0000
  O   O13       1.0  0.57035  0.49430  0.77122  1.0000
  O   O14       1.0  0.83535  0.00521  0.72918  1.0000
  O   O15       1.0  0.42965  0.50571  0.22879  1.0000
  O   O16       1.0  0.16466  0.99479  0.27081  1.0000
