data_image0
_chemical_formula_structural       Cd2H20C12N4O10
_chemical_formula_sum              "Cd2 H20 C12 N4 O10"
_cell_length_a       7.31996
_cell_length_b       7.7339
_cell_length_c       9.66414
_cell_angle_alpha    113.573
_cell_angle_beta     112.264
_cell_angle_gamma    90.0088

_space_group_name_H-M_alt    "P 1"
_space_group_IT_number       1

loop_
  _space_group_symop_operation_xyz
  'x, y, z'

loop_
  _atom_site_type_symbol
  _atom_site_label
  _atom_site_symmetry_multiplicity
  _atom_site_fract_x
  _atom_site_fract_y
  _atom_site_fract_z
  _atom_site_occupancy
  Cd  Cd1       1.0  0.81052  0.19386  0.38757  1.0000
  Cd  Cd2       1.0  0.42285  0.80610  0.61239  1.0000
  H   H1        1.0  0.61476  0.88417  0.00016  1.0000
  H   H2        1.0  0.61474  0.11602  0.99995  1.0000
  H   H3        1.0  0.15086  0.97412  0.25980  1.0000
  H   H4        1.0  0.89096  0.02593  0.74025  1.0000
  H   H5        1.0  0.89103  0.71395  0.74066  1.0000
  H   H6        1.0  0.15077  0.28602  0.25939  1.0000
  H   H7        1.0  0.92266  0.80321  0.14930  1.0000
  H   H8        1.0  0.77345  0.19688  0.85078  1.0000
  H   H9        1.0  0.77355  0.65397  0.85143  1.0000
  H   H10       1.0  0.92254  0.34616  0.14869  1.0000
  H   H11       1.0  0.19752  0.94453  0.88943  1.0000
  H   H12       1.0  0.30817  0.05536  0.11053  1.0000
  H   H13       1.0  0.06325  0.39294  0.78639  1.0000
  H   H14       1.0  0.27679  0.60693  0.21351  1.0000
  H   H15       1.0  0.33216  0.44309  0.88645  1.0000
  H   H16       1.0  0.44565  0.55689  0.11355  1.0000
  H   H17       1.0  0.60126  0.17089  0.55200  1.0000
  H   H18       1.0  0.04908  0.82907  0.44789  1.0000
  H   H19       1.0  0.04903  0.61873  0.44801  1.0000
  H   H20       1.0  0.60115  0.38119  0.55189  1.0000
  C   C1        1.0  0.70098  0.00007  0.00005  1.0000
  C   C2        1.0  0.00946  0.91765  0.14774  1.0000
  C   C3        1.0  0.86172  0.08241  0.85233  1.0000
  C   C4        1.0  0.86181  0.76983  0.85276  1.0000
  C   C5        1.0  0.00935  0.23023  0.14734  1.0000
  C   C6        1.0  0.16516  0.99998  1.00000  1.0000
  C   C7        1.0  0.20256  0.38352  0.76733  1.0000
  C   C8        1.0  0.43519  0.61644  0.23266  1.0000
  C   C9        1.0  0.20525  0.50343  0.67542  1.0000
  C   C10       1.0  0.52978  0.49650  0.32456  1.0000
  C   C11       1.0  0.53009  0.82816  0.32466  1.0000
  C   C12       1.0  0.20540  0.17183  0.67528  1.0000
  N   N1        1.0  0.89149  0.07625  0.15214  1.0000
  N   N2        1.0  0.73926  0.92384  0.84793  1.0000
  N   N3        1.0  0.05184  0.84234  0.00022  1.0000
  N   N4        1.0  0.05174  0.15766  0.99982  1.0000
  O   O1        1.0  0.05516  0.46886  0.53842  1.0000
  O   O2        1.0  0.51667  0.53106  0.46152  1.0000
  O   O3        1.0  0.51709  0.93054  0.46166  1.0000
  O   O4        1.0  0.05538  0.06947  0.53827  1.0000
  O   O5        1.0  0.35539  0.63537  0.74264  1.0000
  O   O6        1.0  0.61278  0.36465  0.25739  1.0000
  O   O7        1.0  0.61313  0.89280  0.25747  1.0000
  O   O8        1.0  0.35569  0.10716  0.74247  1.0000
  O   O9        1.0  0.68628  0.29733  0.59445  1.0000
  O   O10       1.0  0.09156  0.70261  0.40544  1.0000
