data_image0
_chemical_formula_structural       Cu4H20C8I4N4
_chemical_formula_sum              "Cu4 H20 C8 I4 N4"
_cell_length_a       6.90283
_cell_length_b       8.8208
_cell_length_c       8.82084
_cell_angle_alpha    118.241
_cell_angle_beta     97.0952
_cell_angle_gamma    97.0945

_space_group_name_H-M_alt    "P 1"
_space_group_IT_number       1

loop_
  _space_group_symop_operation_xyz
  'x, y, z'

loop_
  _atom_site_type_symbol
  _atom_site_label
  _atom_site_symmetry_multiplicity
  _atom_site_fract_x
  _atom_site_fract_y
  _atom_site_fract_z
  _atom_site_occupancy
  Cu  Cu1       1.0  0.88306  0.98035  0.86274  1.0000
  Cu  Cu2       1.0  0.61694  0.13725  0.01965  1.0000
  Cu  Cu3       1.0  0.11693  0.01965  0.13726  1.0000
  Cu  Cu4       1.0  0.38305  0.86273  0.98034  1.0000
  H   H1        1.0  0.00966  0.73091  0.51503  1.0000
  H   H2        1.0  0.49035  0.48498  0.26909  1.0000
  H   H3        1.0  0.99034  0.26910  0.48498  1.0000
  H   H4        1.0  0.50965  0.51502  0.73089  1.0000
  H   H5        1.0  0.79231  0.79842  0.46142  1.0000
  H   H6        1.0  0.70769  0.53857  0.20158  1.0000
  H   H7        1.0  0.20769  0.20160  0.53858  1.0000
  H   H8        1.0  0.29230  0.46142  0.79841  1.0000
  H   H9        1.0  0.79444  0.12443  0.61484  1.0000
  H   H10       1.0  0.70554  0.38516  0.87557  1.0000
  H   H11       1.0  0.20556  0.87559  0.38518  1.0000
  H   H12       1.0  0.29444  0.61482  0.12441  1.0000
  H   H13       1.0  0.00940  0.26988  0.77426  1.0000
  H   H14       1.0  0.49059  0.22573  0.73011  1.0000
  H   H15       1.0  0.99060  0.73013  0.22575  1.0000
  H   H16       1.0  0.50940  0.77426  0.26987  1.0000
  H   H17       1.0  0.16184  0.02289  0.71070  1.0000
  H   H18       1.0  0.33818  0.28930  0.97712  1.0000
  H   H19       1.0  0.83818  0.97712  0.28931  1.0000
  H   H20       1.0  0.66181  0.71068  0.02286  1.0000
  C   C1        1.0  0.95627  0.83459  0.49661  1.0000
  C   C2        1.0  0.54377  0.50343  0.16543  1.0000
  C   C3        1.0  0.04375  0.16542  0.50341  1.0000
  C   C4        1.0  0.45624  0.49662  0.83460  1.0000
  C   C5        1.0  0.95849  0.14781  0.64675  1.0000
  C   C6        1.0  0.54153  0.35325  0.85220  1.0000
  C   C7        1.0  0.04153  0.85221  0.35326  1.0000
  C   C8        1.0  0.45848  0.64673  0.14779  1.0000
  I   I1        1.0  0.00406  0.29819  0.13795  1.0000
  I   I2        1.0  0.49593  0.86204  0.70179  1.0000
  I   I3        1.0  0.99593  0.70179  0.86205  1.0000
  I   I4        1.0  0.50407  0.13794  0.29820  1.0000
  N   N1        1.0  0.01009  0.99989  0.66760  1.0000
  N   N2        1.0  0.48989  0.33239  0.00010  1.0000
  N   N3        1.0  0.98989  0.00010  0.33239  1.0000
  N   N4        1.0  0.51013  0.66761  0.99989  1.0000
