data_image0
_chemical_formula_structural       Mn2H22C32N10O10
_chemical_formula_sum              "Mn2 H22 C32 N10 O10"
_cell_length_a       9.16421
_cell_length_b       9.44111
_cell_length_c       10.2995
_cell_angle_alpha    85.0754
_cell_angle_beta     80.8509
_cell_angle_gamma    76.6942

_space_group_name_H-M_alt    "P 1"
_space_group_IT_number       1

loop_
  _space_group_symop_operation_xyz
  'x, y, z'

loop_
  _atom_site_type_symbol
  _atom_site_label
  _atom_site_symmetry_multiplicity
  _atom_site_fract_x
  _atom_site_fract_y
  _atom_site_fract_z
  _atom_site_occupancy
  Mn  Mn1       1.0  0.56747  0.79471  0.61247  1.0000
  Mn  Mn2       1.0  0.43251  0.20528  0.38755  1.0000
  H   H1        1.0  0.08506  0.66395  0.50513  1.0000
  H   H2        1.0  0.91491  0.33606  0.49481  1.0000
  H   H3        1.0  0.81429  0.71505  0.42984  1.0000
  H   H4        1.0  0.18571  0.28494  0.57019  1.0000
  H   H5        1.0  0.72811  0.59077  0.42655  1.0000
  H   H6        1.0  0.27188  0.40923  0.57346  1.0000
  H   H7        1.0  0.28695  0.04615  0.73766  1.0000
  H   H8        1.0  0.71304  0.95383  0.26234  1.0000
  H   H9        1.0  0.14491  0.10893  0.95934  1.0000
  H   H10       1.0  0.85509  0.89106  0.04066  1.0000
  H   H11       1.0  0.23119  0.96347  0.15867  1.0000
  H   H12       1.0  0.76883  0.03655  0.84133  1.0000
  H   H13       1.0  0.41828  0.74941  0.25121  1.0000
  H   H14       1.0  0.58174  0.25061  0.74880  1.0000
  H   H15       1.0  0.63851  0.54417  0.21298  1.0000
  H   H16       1.0  0.36151  0.45586  0.78705  1.0000
  H   H17       1.0  0.84978  0.40212  0.05462  1.0000
  H   H18       1.0  0.15023  0.59790  0.94541  1.0000
  H   H19       1.0  0.97591  0.36684  0.81965  1.0000
  H   H20       1.0  0.02409  0.63314  0.18037  1.0000
  H   H21       1.0  0.86735  0.53406  0.64154  1.0000
  H   H22       1.0  0.13265  0.46590  0.35847  1.0000
  C   C1        1.0  0.27503  0.81196  0.50297  1.0000
  C   C2        1.0  0.72495  0.18805  0.49702  1.0000
  C   C3        1.0  0.16797  0.88428  0.42218  1.0000
  C   C4        1.0  0.83202  0.11573  0.57780  1.0000
  C   C5        1.0  0.30361  0.66735  0.57327  1.0000
  C   C6        1.0  0.69637  0.33265  0.42671  1.0000
  C   C7        1.0  0.04062  0.83839  0.37938  1.0000
  C   C8        1.0  0.95938  0.16163  0.62055  1.0000
  C   C9        1.0  0.32324  0.98373  0.82524  1.0000
  C   C10       1.0  0.67676  0.01627  0.17476  1.0000
  C   C11       1.0  0.24357  0.01864  0.95076  1.0000
  C   C12       1.0  0.75644  0.98136  0.04925  1.0000
  C   C13       1.0  0.29086  0.93713  0.06042  1.0000
  C   C14       1.0  0.70915  0.06288  0.93959  1.0000
  C   C15       1.0  0.41844  0.81926  0.04419  1.0000
  C   C16       1.0  0.58158  0.18076  0.95582  1.0000
  C   C17       1.0  0.47543  0.72771  0.15144  1.0000
  C   C18       1.0  0.52459  0.27232  0.84857  1.0000
  C   C19       1.0  0.59892  0.61489  0.13044  1.0000
  C   C20       1.0  0.40110  0.38513  0.86957  1.0000
  C   C21       1.0  0.67655  0.58606  0.00023  1.0000
  C   C22       1.0  0.32346  0.41395  0.99979  1.0000
  C   C23       1.0  0.80632  0.47256  0.97325  1.0000
  C   C24       1.0  0.19368  0.52744  0.02677  1.0000
  C   C25       1.0  0.87610  0.45322  0.84474  1.0000
  C   C26       1.0  0.12388  0.54676  0.15527  1.0000
  C   C27       1.0  0.81497  0.54671  0.74359  1.0000
  C   C28       1.0  0.18503  0.45326  0.25642  1.0000
  C   C29       1.0  0.62300  0.67438  0.89139  1.0000
  C   C30       1.0  0.37701  0.32562  0.10863  1.0000
  C   C31       1.0  0.49157  0.79174  0.91380  1.0000
  C   C32       1.0  0.50845  0.20827  0.08622  1.0000
  N   N1        1.0  0.37140  0.89972  0.50623  1.0000
  N   N2        1.0  0.62857  0.10028  0.49378  1.0000
  N   N3        1.0  0.32490  0.02039  0.43159  1.0000
  N   N4        1.0  0.67509  0.97961  0.56841  1.0000
  N   N5        1.0  0.20340  0.01375  0.37899  1.0000
  N   N6        1.0  0.79660  0.98626  0.62099  1.0000
  N   N7        1.0  0.44331  0.87331  0.80716  1.0000
  N   N8        1.0  0.55670  0.12668  0.19284  1.0000
  N   N9        1.0  0.69179  0.65324  0.76535  1.0000
  N   N10       1.0  0.30821  0.34675  0.23466  1.0000
  O   O1        1.0  0.42503  0.62672  0.62250  1.0000
  O   O2        1.0  0.57493  0.37327  0.37749  1.0000
  O   O3        1.0  0.20299  0.59045  0.57945  1.0000
  O   O4        1.0  0.79699  0.40955  0.42049  1.0000
  O   O5        1.0  0.00718  0.71549  0.43982  1.0000
  O   O6        1.0  0.99281  0.28452  0.56011  1.0000
  O   O7        1.0  0.96905  0.90496  0.29347  1.0000
  O   O8        1.0  0.03101  0.09504  0.70647  1.0000
  O   O9        1.0  0.71087  0.69731  0.43965  1.0000
  O   O10       1.0  0.28914  0.30268  0.56038  1.0000
