data_image0
_chemical_formula_structural       Cu4H16C12Br4N4
_chemical_formula_sum              "Cu4 H16 C12 Br4 N4"
_cell_length_a       3.85508
_cell_length_b       8.31812
_cell_length_c       14.506
_cell_angle_alpha    92.8543
_cell_angle_beta     91.2434
_cell_angle_gamma    90.2221

_space_group_name_H-M_alt    "P 1"
_space_group_IT_number       1

loop_
  _space_group_symop_operation_xyz
  'x, y, z'

loop_
  _atom_site_type_symbol
  _atom_site_label
  _atom_site_symmetry_multiplicity
  _atom_site_fract_x
  _atom_site_fract_y
  _atom_site_fract_z
  _atom_site_occupancy
  Cu  Cu1       1.0  0.65126  0.39031  0.75022  1.0000
  Cu  Cu2       1.0  0.34868  0.60969  0.24979  1.0000
  Cu  Cu3       1.0  0.00491  0.17247  0.84206  1.0000
  Cu  Cu4       1.0  0.99507  0.82752  0.15794  1.0000
  H   H1        1.0  0.70917  0.98583  0.68542  1.0000
  H   H2        1.0  0.29085  0.01416  0.31457  1.0000
  H   H3        1.0  0.13141  0.86643  0.93935  1.0000
  H   H4        1.0  0.86859  0.13357  0.06065  1.0000
  H   H5        1.0  0.95287  0.57970  0.90668  1.0000
  H   H6        1.0  0.04712  0.42029  0.09332  1.0000
  H   H7        1.0  0.27160  0.60679  0.63932  1.0000
  H   H8        1.0  0.72842  0.39322  0.36068  1.0000
  H   H9        1.0  0.67776  0.58772  0.59034  1.0000
  H   H10       1.0  0.32225  0.41229  0.40966  1.0000
  H   H11       1.0  0.27958  0.75669  0.49582  1.0000
  H   H12       1.0  0.72043  0.24331  0.50417  1.0000
  H   H13       1.0  0.64992  0.86835  0.53419  1.0000
  H   H14       1.0  0.35011  0.13166  0.46580  1.0000
  H   H15       1.0  0.24905  0.90149  0.58964  1.0000
  H   H16       1.0  0.75096  0.09852  0.41036  1.0000
  C   C1        1.0  0.67148  0.73331  0.71381  1.0000
  C   C2        1.0  0.32852  0.26668  0.28619  1.0000
  C   C3        1.0  0.76438  0.89323  0.73404  1.0000
  C   C4        1.0  0.23564  0.10677  0.26596  1.0000
  C   C5        1.0  0.99564  0.82971  0.87505  1.0000
  C   C6        1.0  0.00437  0.17028  0.12496  1.0000
  C   C7        1.0  0.89910  0.67042  0.85670  1.0000
  C   C8        1.0  0.10089  0.32958  0.14330  1.0000
  C   C9        1.0  0.50376  0.67725  0.62360  1.0000
  C   C10       1.0  0.49624  0.32275  0.37639  1.0000
  C   C11       1.0  0.41579  0.80853  0.55757  1.0000
  C   C12       1.0  0.58424  0.19147  0.44243  1.0000
  Br  Br1       1.0  0.51024  0.29829  0.91945  1.0000
  Br  Br2       1.0  0.48975  0.70171  0.08056  1.0000
  Br  Br3       1.0  0.14153  0.26248  0.67143  1.0000
  Br  Br4       1.0  0.85842  0.73753  0.32857  1.0000
  N   N1        1.0  0.73729  0.62031  0.77681  1.0000
  N   N2        1.0  0.26270  0.37968  0.22320  1.0000
  N   N3        1.0  0.92730  0.94331  0.81391  1.0000
  N   N4        1.0  0.07270  0.05669  0.18609  1.0000
