data_image0
_chemical_formula_structural       Zn4H22C30N4O18
_chemical_formula_sum              "Zn4 H22 C30 N4 O18"
_cell_length_a       8.68855
_cell_length_b       9.48562
_cell_length_c       11.1134
_cell_angle_alpha    79.0639
_cell_angle_beta     77.1393
_cell_angle_gamma    69.1448

_space_group_name_H-M_alt    "P 1"
_space_group_IT_number       1

loop_
  _space_group_symop_operation_xyz
  'x, y, z'

loop_
  _atom_site_type_symbol
  _atom_site_label
  _atom_site_symmetry_multiplicity
  _atom_site_fract_x
  _atom_site_fract_y
  _atom_site_fract_z
  _atom_site_occupancy
  Zn  Zn1       1.0  0.89433  0.36043  0.65863  1.0000
  Zn  Zn2       1.0  0.10566  0.63957  0.34137  1.0000
  Zn  Zn3       1.0  0.55607  0.22765  0.00799  1.0000
  Zn  Zn4       1.0  0.44394  0.77234  0.99201  1.0000
  H   H1        1.0  0.84803  0.99540  0.98108  1.0000
  H   H2        1.0  0.15196  0.00459  0.01891  1.0000
  H   H3        1.0  0.78836  0.98780  0.12597  1.0000
  H   H4        1.0  0.21165  0.01220  0.87402  1.0000
  H   H5        1.0  0.36454  0.20940  0.21331  1.0000
  H   H6        1.0  0.63546  0.79060  0.78669  1.0000
  H   H7        1.0  0.40795  0.36700  0.62543  1.0000
  H   H8        1.0  0.59204  0.63300  0.37457  1.0000
  H   H9        1.0  0.59219  0.12663  0.30402  1.0000
  H   H10       1.0  0.40781  0.87337  0.69598  1.0000
  H   H11       1.0  0.85658  0.97361  0.61307  1.0000
  H   H12       1.0  0.14343  0.02641  0.38692  1.0000
  H   H13       1.0  0.00435  0.62779  0.62888  1.0000
  H   H14       1.0  0.99564  0.37222  0.37113  1.0000
  H   H15       1.0  0.18800  0.70695  0.72720  1.0000
  H   H16       1.0  0.81200  0.29305  0.27281  1.0000
  H   H17       1.0  0.21520  0.31302  0.00201  1.0000
  H   H18       1.0  0.78481  0.68697  0.99799  1.0000
  H   H19       1.0  0.02800  0.25292  0.89453  1.0000
  H   H20       1.0  0.97199  0.74707  0.10547  1.0000
  H   H21       1.0  0.41933  0.04547  0.15452  1.0000
  H   H22       1.0  0.58067  0.95452  0.84548  1.0000
  C   C1        1.0  0.63495  0.17324  0.63247  1.0000
  C   C2        1.0  0.36504  0.82677  0.36753  1.0000
  C   C3        1.0  0.49985  0.27383  0.57772  1.0000
  C   C4        1.0  0.50014  0.72617  0.42228  1.0000
  C   C5        1.0  0.48343  0.25664  0.45951  1.0000
  C   C6        1.0  0.51657  0.74337  0.54049  1.0000
  C   C7        1.0  0.60181  0.13844  0.39724  1.0000
  C   C8        1.0  0.39819  0.86157  0.60275  1.0000
  C   C9        1.0  0.73528  0.03632  0.45220  1.0000
  C   C10       1.0  0.26472  0.96369  0.54780  1.0000
  C   C11       1.0  0.75208  0.05364  0.57065  1.0000
  C   C12       1.0  0.24793  0.94637  0.42935  1.0000
  C   C13       1.0  0.64612  0.19549  0.75966  1.0000
  C   C14       1.0  0.35387  0.80451  0.24033  1.0000
  C   C15       1.0  0.34436  0.36629  0.39658  1.0000
  C   C16       1.0  0.65563  0.63371  0.60343  1.0000
  C   C17       1.0  0.85977  0.91188  0.38132  1.0000
  C   C18       1.0  0.14024  0.08813  0.61867  1.0000
  C   C19       1.0  0.05565  0.56038  0.71030  1.0000
  C   C20       1.0  0.94434  0.43962  0.28970  1.0000
  C   C21       1.0  0.15733  0.60389  0.76514  1.0000
  C   C22       1.0  0.84267  0.39611  0.23486  1.0000
  C   C23       1.0  0.22229  0.51327  0.86955  1.0000
  C   C24       1.0  0.77772  0.48672  0.13045  1.0000
  C   C25       1.0  0.17491  0.38482  0.91834  1.0000
  C   C26       1.0  0.82509  0.61517  0.08166  1.0000
  C   C27       1.0  0.07014  0.35017  0.85929  1.0000
  C   C28       1.0  0.92986  0.64982  0.14071  1.0000
  C   C29       1.0  0.32904  0.56638  0.92520  1.0000
  C   C30       1.0  0.67096  0.43361  0.07480  1.0000
  N   N1        1.0  0.45417  0.46603  0.97827  1.0000
  N   N2        1.0  0.54583  0.53395  0.02173  1.0000
  N   N3        1.0  0.01455  0.43367  0.75580  1.0000
  N   N4        1.0  0.98544  0.56634  0.24420  1.0000
  O   O1        1.0  0.74246  0.25977  0.77855  1.0000
  O   O2        1.0  0.25755  0.74022  0.22146  1.0000
  O   O3        1.0  0.54904  0.14885  0.85056  1.0000
  O   O4        1.0  0.45096  0.85114  0.14943  1.0000
  O   O5        1.0  0.25549  0.48713  0.44903  1.0000
  O   O6        1.0  0.74448  0.51286  0.55098  1.0000
  O   O7        1.0  0.32056  0.34146  0.29612  1.0000
  O   O8        1.0  0.67944  0.65854  0.70388  1.0000
  O   O9        1.0  0.94967  0.79642  0.44667  1.0000
  O   O10       1.0  0.05034  0.20359  0.55333  1.0000
  O   O11       1.0  0.87320  0.92385  0.26506  1.0000
  O   O12       1.0  0.12682  0.07616  0.73493  1.0000
  O   O13       1.0  0.29327  0.71151  0.91477  1.0000
  O   O14       1.0  0.70674  0.28848  0.08523  1.0000
  O   O15       1.0  0.75099  0.99787  0.04538  1.0000
  O   O16       1.0  0.24902  0.00212  0.95462  1.0000
  O   O17       1.0  0.38600  0.15755  0.13668  1.0000
  O   O18       1.0  0.61401  0.84244  0.86332  1.0000
