data_image0
_chemical_formula_structural       Sn4H32C16Br16O8
_chemical_formula_sum              "Sn4 H32 C16 Br16 O8"
_cell_length_a       8.80816
_cell_length_b       11.2309
_cell_length_c       11.2084
_cell_angle_alpha    89.9998
_cell_angle_beta     89.9994
_cell_angle_gamma    89.9999

_space_group_name_H-M_alt    "P 1"
_space_group_IT_number       1

loop_
  _space_group_symop_operation_xyz
  'x, y, z'

loop_
  _atom_site_type_symbol
  _atom_site_label
  _atom_site_symmetry_multiplicity
  _atom_site_fract_x
  _atom_site_fract_y
  _atom_site_fract_z
  _atom_site_occupancy
  Sn  Sn1       1.0  0.99999  0.75000  0.78361  1.0000
  Sn  Sn2       1.0  0.49999  0.25000  0.71639  1.0000
  Sn  Sn3       1.0  0.00000  0.25001  0.21636  1.0000
  Sn  Sn4       1.0  0.50001  0.75000  0.28366  1.0000
  H   H1        1.0  0.80394  0.52367  0.85147  1.0000
  H   H2        1.0  0.69605  0.02367  0.64853  1.0000
  H   H3        1.0  0.19606  0.97633  0.85147  1.0000
  H   H4        1.0  0.30394  0.47633  0.64853  1.0000
  H   H5        1.0  0.19605  0.47634  0.14852  1.0000
  H   H6        1.0  0.30395  0.97633  0.35147  1.0000
  H   H7        1.0  0.80394  0.02367  0.14852  1.0000
  H   H8        1.0  0.69605  0.52366  0.35147  1.0000
  H   H9        1.0  0.78139  0.53258  0.01014  1.0000
  H   H10       1.0  0.71861  0.03258  0.48986  1.0000
  H   H11       1.0  0.21861  0.96742  0.01014  1.0000
  H   H12       1.0  0.28139  0.46742  0.48986  1.0000
  H   H13       1.0  0.21860  0.46743  0.98985  1.0000
  H   H14       1.0  0.28139  0.96743  0.51014  1.0000
  H   H15       1.0  0.78139  0.03258  0.98985  1.0000
  H   H16       1.0  0.71860  0.53257  0.51014  1.0000
  H   H17       1.0  0.15004  0.67355  0.04675  1.0000
  H   H18       1.0  0.34996  0.17355  0.45325  1.0000
  H   H19       1.0  0.84995  0.82645  0.04674  1.0000
  H   H20       1.0  0.65004  0.32644  0.45325  1.0000
  H   H21       1.0  0.84995  0.32646  0.95325  1.0000
  H   H22       1.0  0.65005  0.82646  0.54676  1.0000
  H   H23       1.0  0.15005  0.17354  0.95324  1.0000
  H   H24       1.0  0.34995  0.67354  0.54675  1.0000
  H   H25       1.0  0.98524  0.62140  0.12605  1.0000
  H   H26       1.0  0.51475  0.12140  0.37394  1.0000
  H   H27       1.0  0.01475  0.87860  0.12605  1.0000
  H   H28       1.0  0.48525  0.37860  0.37394  1.0000
  H   H29       1.0  0.01474  0.37861  0.87394  1.0000
  H   H30       1.0  0.48525  0.87861  0.62606  1.0000
  H   H31       1.0  0.98526  0.12139  0.87394  1.0000
  H   H32       1.0  0.51475  0.62139  0.62606  1.0000
  C   C1        1.0  0.86245  0.51654  0.93728  1.0000
  C   C2        1.0  0.63755  0.01655  0.56272  1.0000
  C   C3        1.0  0.13755  0.98345  0.93729  1.0000
  C   C4        1.0  0.36245  0.48345  0.56271  1.0000
  C   C5        1.0  0.13754  0.48345  0.06271  1.0000
  C   C6        1.0  0.36245  0.98346  0.43729  1.0000
  C   C7        1.0  0.86245  0.01655  0.06270  1.0000
  C   C8        1.0  0.63755  0.51654  0.43729  1.0000
  C   C9        1.0  0.06317  0.60391  0.05125  1.0000
  C   C10       1.0  0.43682  0.10391  0.44874  1.0000
  C   C11       1.0  0.93682  0.89609  0.05125  1.0000
  C   C12       1.0  0.56318  0.39609  0.44874  1.0000
  C   C13       1.0  0.93682  0.39610  0.94874  1.0000
  C   C14       1.0  0.56318  0.89610  0.55127  1.0000
  C   C15       1.0  0.06318  0.10390  0.94874  1.0000
  C   C16       1.0  0.43682  0.60390  0.55126  1.0000
  Br  Br1       1.0  0.98201  0.57626  0.63817  1.0000
  Br  Br2       1.0  0.51798  0.07626  0.86182  1.0000
  Br  Br3       1.0  0.01798  0.92374  0.63817  1.0000
  Br  Br4       1.0  0.48202  0.42375  0.86183  1.0000
  Br  Br5       1.0  0.01797  0.42375  0.36183  1.0000
  Br  Br6       1.0  0.48204  0.92371  0.13820  1.0000
  Br  Br7       1.0  0.98203  0.07626  0.36181  1.0000
  Br  Br8       1.0  0.51797  0.57628  0.13820  1.0000
  Br  Br9       1.0  0.71490  0.77236  0.82278  1.0000
  Br  Br10      1.0  0.78508  0.27237  0.67724  1.0000
  Br  Br11      1.0  0.28507  0.72763  0.82276  1.0000
  Br  Br12      1.0  0.21491  0.22764  0.67721  1.0000
  Br  Br13      1.0  0.28510  0.22765  0.17721  1.0000
  Br  Br14      1.0  0.21494  0.72763  0.32281  1.0000
  Br  Br15      1.0  0.71491  0.27237  0.17722  1.0000
  Br  Br16      1.0  0.78514  0.77235  0.32282  1.0000
  O   O1        1.0  0.97737  0.60965  0.94071  1.0000
  O   O2        1.0  0.52263  0.10965  0.55929  1.0000
  O   O3        1.0  0.02263  0.89035  0.94071  1.0000
  O   O4        1.0  0.47736  0.39035  0.55929  1.0000
  O   O5        1.0  0.02263  0.39036  0.05928  1.0000
  O   O6        1.0  0.47737  0.89036  0.44072  1.0000
  O   O7        1.0  0.97737  0.10965  0.05928  1.0000
  O   O8        1.0  0.52263  0.60964  0.44072  1.0000
