data_image0
_chemical_formula_structural       Ba2H16C8O14
_chemical_formula_sum              "Ba2 H16 C8 O14"
_cell_length_a       6.50449
_cell_length_b       7.94823
_cell_length_c       8.94396
_cell_angle_alpha    104.172
_cell_angle_beta     103.79
_cell_angle_gamma    108.138

_space_group_name_H-M_alt    "P 1"
_space_group_IT_number       1

loop_
  _space_group_symop_operation_xyz
  'x, y, z'

loop_
  _atom_site_type_symbol
  _atom_site_label
  _atom_site_symmetry_multiplicity
  _atom_site_fract_x
  _atom_site_fract_y
  _atom_site_fract_z
  _atom_site_occupancy
  Ba  Ba1       1.0  0.14450  0.26194  0.41929  1.0000
  Ba  Ba2       1.0  0.85550  0.73806  0.58071  1.0000
  H   H1        1.0  0.18806  0.72715  0.98063  1.0000
  H   H2        1.0  0.81193  0.27285  0.01937  1.0000
  H   H3        1.0  0.20928  0.38025  0.05598  1.0000
  H   H4        1.0  0.79071  0.61975  0.94402  1.0000
  H   H5        1.0  0.26621  0.89783  0.41836  1.0000
  H   H6        1.0  0.73379  0.10217  0.58164  1.0000
  H   H7        1.0  0.37036  0.04195  0.59870  1.0000
  H   H8        1.0  0.62964  0.95805  0.40130  1.0000
  H   H9        1.0  0.38138  0.01879  0.20706  1.0000
  H   H10       1.0  0.61862  0.98121  0.79294  1.0000
  H   H11       1.0  0.54763  0.22855  0.24199  1.0000
  H   H12       1.0  0.45238  0.77145  0.75801  1.0000
  H   H13       1.0  0.76575  0.92505  0.01904  1.0000
  H   H14       1.0  0.23425  0.07495  0.98096  1.0000
  H   H15       1.0  0.81541  0.83870  0.15902  1.0000
  H   H16       1.0  0.18459  0.16130  0.84099  1.0000
  C   C1        1.0  0.16901  0.49422  0.79049  1.0000
  C   C2        1.0  0.83099  0.50578  0.20951  1.0000
  C   C3        1.0  0.10996  0.57284  0.93945  1.0000
  C   C4        1.0  0.89003  0.42716  0.06055  1.0000
  C   C5        1.0  0.31686  0.64243  0.24789  1.0000
  C   C6        1.0  0.68313  0.35757  0.75211  1.0000
  C   C7        1.0  0.15512  0.49844  0.08226  1.0000
  C   C8        1.0  0.84487  0.50156  0.91774  1.0000
  O   O1        1.0  0.17167  0.58438  0.68865  1.0000
  O   O2        1.0  0.82833  0.41562  0.31135  1.0000
  O   O3        1.0  0.20649  0.34476  0.76630  1.0000
  O   O4        1.0  0.79351  0.65524  0.23370  1.0000
  O   O5        1.0  0.38322  0.58359  0.36251  1.0000
  O   O6        1.0  0.61677  0.41641  0.63749  1.0000
  O   O7        1.0  0.37186  0.81801  0.26676  1.0000
  O   O8        1.0  0.62814  0.18199  0.73323  1.0000
  O   O9        1.0  0.22045  0.96073  0.50744  1.0000
  O   O10       1.0  0.77956  0.03927  0.49256  1.0000
  O   O11       1.0  0.38321  0.14234  0.20298  1.0000
  O   O12       1.0  0.61679  0.85766  0.79702  1.0000
  O   O13       1.0  0.84212  0.95945  0.13817  1.0000
  O   O14       1.0  0.15788  0.04055  0.86183  1.0000
