data_image0
_chemical_formula_structural       K4H20C16O20
_chemical_formula_sum              "K4 H20 C16 O20"
_cell_length_a       6.3944
_cell_length_b       6.46281
_cell_length_c       15.3665
_cell_angle_alpha    90
_cell_angle_beta     89.9999
_cell_angle_gamma    106.614

_space_group_name_H-M_alt    "P 1"
_space_group_IT_number       1

loop_
  _space_group_symop_operation_xyz
  'x, y, z'

loop_
  _atom_site_type_symbol
  _atom_site_label
  _atom_site_symmetry_multiplicity
  _atom_site_fract_x
  _atom_site_fract_y
  _atom_site_fract_z
  _atom_site_occupancy
  K   K1        1.0  0.06198  0.03389  0.70674  1.0000
  K   K2        1.0  0.43803  0.46611  0.20674  1.0000
  K   K3        1.0  0.93803  0.96610  0.29326  1.0000
  K   K4        1.0  0.56197  0.53389  0.79325  1.0000
  H   H1        1.0  0.22814  0.86614  0.51504  1.0000
  H   H2        1.0  0.27187  0.63387  0.01504  1.0000
  H   H3        1.0  0.77186  0.13385  0.48496  1.0000
  H   H4        1.0  0.72813  0.36614  0.98496  1.0000
  H   H5        1.0  0.05745  0.56810  0.73489  1.0000
  H   H6        1.0  0.44256  0.93191  0.23488  1.0000
  H   H7        1.0  0.94255  0.43190  0.26512  1.0000
  H   H8        1.0  0.55745  0.06810  0.76512  1.0000
  H   H9        1.0  0.10242  0.60770  0.83504  1.0000
  H   H10       1.0  0.39758  0.89232  0.33504  1.0000
  H   H11       1.0  0.89758  0.39232  0.16496  1.0000
  H   H12       1.0  0.60242  0.10768  0.66496  1.0000
  H   H13       1.0  0.26079  0.55308  0.44060  1.0000
  H   H14       1.0  0.23921  0.94692  0.94060  1.0000
  H   H15       1.0  0.73921  0.44690  0.55940  1.0000
  H   H16       1.0  0.76079  0.05311  0.05940  1.0000
  H   H17       1.0  0.37217  0.23800  0.56592  1.0000
  H   H18       1.0  0.12783  0.26201  0.06592  1.0000
  H   H19       1.0  0.62783  0.76198  0.43408  1.0000
  H   H20       1.0  0.87217  0.73801  0.93408  1.0000
  C   C1        1.0  0.21554  0.58526  0.57728  1.0000
  C   C2        1.0  0.28446  0.91473  0.07728  1.0000
  C   C3        1.0  0.78446  0.41471  0.42272  1.0000
  C   C4        1.0  0.71553  0.08527  0.92272  1.0000
  C   C5        1.0  0.34438  0.53699  0.50153  1.0000
  C   C6        1.0  0.15562  0.96301  0.00153  1.0000
  C   C7        1.0  0.65563  0.46300  0.49847  1.0000
  C   C8        1.0  0.84437  0.03700  0.99848  1.0000
  C   C9        1.0  0.40886  0.32452  0.50412  1.0000
  C   C10       1.0  0.09114  0.17548  0.00412  1.0000
  C   C11       1.0  0.59114  0.67545  0.49588  1.0000
  C   C12       1.0  0.90886  0.82455  0.99588  1.0000
  C   C13       1.0  0.33028  0.17852  0.42624  1.0000
  C   C14       1.0  0.16971  0.32149  0.92624  1.0000
  C   C15       1.0  0.66971  0.82147  0.57375  1.0000
  C   C16       1.0  0.83029  0.67853  0.07376  1.0000
  O   O1        1.0  0.17551  0.77460  0.57495  1.0000
  O   O2        1.0  0.32452  0.72542  0.07495  1.0000
  O   O3        1.0  0.82450  0.22539  0.42505  1.0000
  O   O4        1.0  0.67548  0.27461  0.92505  1.0000
  O   O5        1.0  0.15025  0.45755  0.63847  1.0000
  O   O6        1.0  0.34975  0.04246  0.13848  1.0000
  O   O7        1.0  0.84975  0.54244  0.36152  1.0000
  O   O8        1.0  0.65024  0.95756  0.86153  1.0000
  O   O9        1.0  0.33156  0.26345  0.35300  1.0000
  O   O10       1.0  0.16843  0.23656  0.85300  1.0000
  O   O11       1.0  0.66845  0.73654  0.64700  1.0000
  O   O12       1.0  0.83154  0.76347  0.14700  1.0000
  O   O13       1.0  0.27038  0.97053  0.43650  1.0000
  O   O14       1.0  0.22962  0.52946  0.93650  1.0000
  O   O15       1.0  0.72962  0.02944  0.56349  1.0000
  O   O16       1.0  0.77038  0.47056  0.06350  1.0000
  O   O17       1.0  0.02194  0.64562  0.78582  1.0000
  O   O18       1.0  0.47807  0.85439  0.28582  1.0000
  O   O19       1.0  0.97806  0.35439  0.21418  1.0000
  O   O20       1.0  0.52195  0.14561  0.71418  1.0000
