data_image0
_chemical_formula_structural       Na2H14C8O12
_chemical_formula_sum              "Na2 H14 C8 O12"
_cell_length_a       6.19955
_cell_length_b       7.79957
_cell_length_c       8.01661
_cell_angle_alpha    116.372
_cell_angle_beta     103.108
_cell_angle_gamma    101.124

_space_group_name_H-M_alt    "P 1"
_space_group_IT_number       1

loop_
  _space_group_symop_operation_xyz
  'x, y, z'

loop_
  _atom_site_type_symbol
  _atom_site_label
  _atom_site_symmetry_multiplicity
  _atom_site_fract_x
  _atom_site_fract_y
  _atom_site_fract_z
  _atom_site_occupancy
  Na  Na1       1.0  0.48130  0.73650  0.65617  1.0000
  Na  Na2       1.0  0.51871  0.26351  0.34384  1.0000
  H   H1        1.0  0.24002  0.99696  0.91800  1.0000
  H   H2        1.0  0.75997  0.00303  0.08199  1.0000
  H   H3        1.0  0.75706  0.65948  0.39701  1.0000
  H   H4        1.0  0.24294  0.34052  0.60300  1.0000
  H   H5        1.0  0.90237  0.68529  0.59936  1.0000
  H   H6        1.0  0.09764  0.31471  0.40065  1.0000
  H   H7        1.0  0.27097  0.00695  0.60338  1.0000
  H   H8        1.0  0.72904  0.99306  0.39662  1.0000
  H   H9        1.0  0.26072  0.88245  0.38559  1.0000
  H   H10       1.0  0.73929  0.11755  0.61442  1.0000
  H   H11       1.0  0.01462  0.47272  0.74963  1.0000
  H   H12       1.0  0.98537  0.52727  0.25037  1.0000
  H   H13       1.0  0.32097  0.60046  0.16679  1.0000
  H   H14       1.0  0.67902  0.39954  0.83321  1.0000
  C   C1        1.0  0.16959  0.78572  0.98669  1.0000
  C   C2        1.0  0.83040  0.21427  0.01329  1.0000
  C   C3        1.0  0.05102  0.56471  0.90926  1.0000
  C   C4        1.0  0.94898  0.43529  0.09074  1.0000
  C   C5        1.0  0.17079  0.48108  0.03371  1.0000
  C   C6        1.0  0.82921  0.51892  0.96630  1.0000
  C   C7        1.0  0.25231  0.30318  0.93119  1.0000
  C   C8        1.0  0.74769  0.69682  0.06882  1.0000
  O   O1        1.0  0.25178  0.91422  0.16702  1.0000
  O   O2        1.0  0.74822  0.08578  0.83298  1.0000
  O   O3        1.0  0.17866  0.83418  0.84809  1.0000
  O   O4        1.0  0.82133  0.16582  0.15190  1.0000
  O   O5        1.0  0.29887  0.21277  0.02842  1.0000
  O   O6        1.0  0.70114  0.78723  0.97158  1.0000
  O   O7        1.0  0.27252  0.25313  0.76448  1.0000
  O   O8        1.0  0.72748  0.74687  0.23553  1.0000
  O   O9        1.0  0.74643  0.61382  0.49389  1.0000
  O   O10       1.0  0.25358  0.38619  0.50611  1.0000
  O   O11       1.0  0.26230  0.87032  0.50284  1.0000
  O   O12       1.0  0.73771  0.12968  0.49716  1.0000
