data_image0
_chemical_formula_structural       Na2H14C8O12
_chemical_formula_sum              "Na2 H14 C8 O12"
_cell_length_a       6.0393
_cell_length_b       6.41116
_cell_length_c       9.21091
_cell_angle_alpha    96.4458
_cell_angle_beta     95.9879
_cell_angle_gamma    115.391

_space_group_name_H-M_alt    "P 1"
_space_group_IT_number       1

loop_
  _space_group_symop_operation_xyz
  'x, y, z'

loop_
  _atom_site_type_symbol
  _atom_site_label
  _atom_site_symmetry_multiplicity
  _atom_site_fract_x
  _atom_site_fract_y
  _atom_site_fract_z
  _atom_site_occupancy
  Na  Na1       1.0  0.75574  0.48183  0.10031  1.0000
  Na  Na2       1.0  0.24426  0.51817  0.89969  1.0000
  H   H1        1.0  0.13117  0.26297  0.42558  1.0000
  H   H2        1.0  0.86884  0.73703  0.57443  1.0000
  H   H3        1.0  0.02484  0.19635  0.11323  1.0000
  H   H4        1.0  0.97516  0.80365  0.88677  1.0000
  H   H5        1.0  0.82152  0.08978  0.96588  1.0000
  H   H6        1.0  0.17849  0.91023  0.03412  1.0000
  H   H7        1.0  0.36364  0.63713  0.20730  1.0000
  H   H8        1.0  0.63636  0.36287  0.79269  1.0000
  H   H9        1.0  0.54346  0.84949  0.15071  1.0000
  H   H10       1.0  0.45654  0.15051  0.84929  1.0000
  H   H11       1.0  0.50727  0.29863  0.52218  1.0000
  H   H12       1.0  0.49273  0.70136  0.47782  1.0000
  H   H13       1.0  0.74452  0.02037  0.37325  1.0000
  H   H14       1.0  0.25548  0.97963  0.62675  1.0000
  C   C1        1.0  0.36668  0.14246  0.29536  1.0000
  C   C2        1.0  0.63332  0.85753  0.70464  1.0000
  C   C3        1.0  0.47049  0.13454  0.45123  1.0000
  C   C4        1.0  0.52951  0.86547  0.54877  1.0000
  C   C5        1.0  0.69365  0.07654  0.47580  1.0000
  C   C6        1.0  0.30636  0.92346  0.52420  1.0000
  C   C7        1.0  0.91639  0.26764  0.57830  1.0000
  C   C8        1.0  0.08363  0.73237  0.42172  1.0000
  O   O1        1.0  0.46614  0.11629  0.18549  1.0000
  O   O2        1.0  0.53387  0.88371  0.81451  1.0000
  O   O3        1.0  0.17128  0.17800  0.28580  1.0000
  O   O4        1.0  0.82873  0.82202  0.71419  1.0000
  O   O5        1.0  0.13340  0.34401  0.53433  1.0000
  O   O6        1.0  0.86660  0.65598  0.46566  1.0000
  O   O7        1.0  0.89888  0.35290  0.70203  1.0000
  O   O8        1.0  0.10111  0.64709  0.29798  1.0000
  O   O9        1.0  0.95502  0.23623  0.02414  1.0000
  O   O10       1.0  0.04498  0.76377  0.97586  1.0000
  O   O11       1.0  0.49821  0.68194  0.14761  1.0000
  O   O12       1.0  0.50179  0.31806  0.85238  1.0000
