data_image0
_chemical_formula_structural       Li4H16C24N4O8
_chemical_formula_sum              "Li4 H16 C24 N4 O8"
_cell_length_a       5.35493
_cell_length_b       11.0146
_cell_length_c       14.2664
_cell_angle_alpha    89.999
_cell_angle_beta     90.0009
_cell_angle_gamma    108.547

_space_group_name_H-M_alt    "P 1"
_space_group_IT_number       1

loop_
  _space_group_symop_operation_xyz
  'x, y, z'

loop_
  _atom_site_type_symbol
  _atom_site_label
  _atom_site_symmetry_multiplicity
  _atom_site_fract_x
  _atom_site_fract_y
  _atom_site_fract_z
  _atom_site_occupancy
  Li  Li1       1.0  0.92615  0.73805  0.01892  1.0000
  Li  Li2       1.0  0.07386  0.26195  0.51891  1.0000
  Li  Li3       1.0  0.56749  0.76061  0.15306  1.0000
  Li  Li4       1.0  0.43253  0.23942  0.65307  1.0000
  H   H1        1.0  0.40768  0.93560  0.35275  1.0000
  H   H2        1.0  0.59233  0.06440  0.85275  1.0000
  H   H3        1.0  0.35792  0.08471  0.47973  1.0000
  H   H4        1.0  0.64206  0.91528  0.97973  1.0000
  H   H5        1.0  0.80262  0.18793  0.32548  1.0000
  H   H6        1.0  0.19741  0.81208  0.82548  1.0000
  H   H7        1.0  0.81381  0.03508  0.19590  1.0000
  H   H8        1.0  0.18620  0.96494  0.69590  1.0000
  H   H9        1.0  0.91134  0.43681  0.31846  1.0000
  H   H10       1.0  0.08861  0.56316  0.81848  1.0000
  H   H11       1.0  0.85590  0.58435  0.19136  1.0000
  H   H12       1.0  0.14407  0.41561  0.69139  1.0000
  H   H13       1.0  0.32252  0.53729  0.47761  1.0000
  H   H14       1.0  0.67749  0.46272  0.97764  1.0000
  H   H15       1.0  0.30611  0.68877  0.34774  1.0000
  H   H16       1.0  0.69392  0.31124  0.84777  1.0000
  C   C1        1.0  0.14181  0.88583  0.18673  1.0000
  C   C2        1.0  0.85820  0.11419  0.68672  1.0000
  C   C3        1.0  0.11521  0.97470  0.26419  1.0000
  C   C4        1.0  0.88480  0.02530  0.76419  1.0000
  C   C5        1.0  0.26848  0.98873  0.34537  1.0000
  C   C6        1.0  0.73150  0.01126  0.84538  1.0000
  C   C7        1.0  0.24240  0.07211  0.41517  1.0000
  C   C8        1.0  0.75762  0.92789  0.91518  1.0000
  C   C9        1.0  0.93321  0.12944  0.32927  1.0000
  C   C10       1.0  0.06679  0.87056  0.82925  1.0000
  C   C11       1.0  0.94159  0.04595  0.25679  1.0000
  C   C12       1.0  0.05844  0.95407  0.75680  1.0000
  C   C13       1.0  0.64947  0.38766  0.48555  1.0000
  C   C14       1.0  0.35050  0.61233  0.98557  1.0000
  C   C15       1.0  0.62150  0.47639  0.40811  1.0000
  C   C16       1.0  0.37851  0.52360  0.90814  1.0000
  C   C17       1.0  0.77222  0.48988  0.32634  1.0000
  C   C18       1.0  0.22775  0.51010  0.82637  1.0000
  C   C19       1.0  0.74297  0.57237  0.25641  1.0000
  C   C20       1.0  0.25701  0.42761  0.75645  1.0000
  C   C21       1.0  0.44816  0.54771  0.41618  1.0000
  C   C22       1.0  0.55184  0.45228  0.91620  1.0000
  C   C23       1.0  0.43677  0.63040  0.34353  1.0000
  C   C24       1.0  0.56324  0.36959  0.84357  1.0000
  N   N1        1.0  0.07908  0.14273  0.40759  1.0000
  N   N2        1.0  0.92093  0.85728  0.90758  1.0000
  N   N3        1.0  0.57946  0.64278  0.26452  1.0000
  N   N4        1.0  0.42054  0.35721  0.76455  1.0000
  O   O1        1.0  0.94864  0.84478  0.13025  1.0000
  O   O2        1.0  0.05138  0.15527  0.63025  1.0000
  O   O3        1.0  0.35373  0.85920  0.18383  1.0000
  O   O4        1.0  0.64626  0.14082  0.68384  1.0000
  O   O5        1.0  0.45536  0.34536  0.54151  1.0000
  O   O6        1.0  0.54468  0.65466  0.04151  1.0000
  O   O7        1.0  0.86279  0.36235  0.48885  1.0000
  O   O8        1.0  0.13716  0.63763  0.98889  1.0000
