data_image0
_chemical_formula_structural       Mn2H28C24O8
_chemical_formula_sum              "Mn2 H28 C24 O8"
_cell_length_a       7.01137
_cell_length_b       7.75309
_cell_length_c       10.7954
_cell_angle_alpha    68.9185
_cell_angle_beta     89.663
_cell_angle_gamma    88.9806

_space_group_name_H-M_alt    "P 1"
_space_group_IT_number       1

loop_
  _space_group_symop_operation_xyz
  'x, y, z'

loop_
  _atom_site_type_symbol
  _atom_site_label
  _atom_site_symmetry_multiplicity
  _atom_site_fract_x
  _atom_site_fract_y
  _atom_site_fract_z
  _atom_site_occupancy
  Mn  Mn1       1.0  0.08448  0.04236  0.07105  1.0000
  Mn  Mn2       1.0  0.58440  0.11329  0.92893  1.0000
  H   H1        1.0  0.43967  0.45969  0.11980  1.0000
  H   H2        1.0  0.93967  0.57986  0.88007  1.0000
  H   H3        1.0  0.63422  0.60836  0.05602  1.0000
  H   H4        1.0  0.13425  0.66462  0.94398  1.0000
  H   H5        1.0  0.95895  0.53142  0.17175  1.0000
  H   H6        1.0  0.45865  0.70377  0.82859  1.0000
  H   H7        1.0  0.98596  0.32964  0.31594  1.0000
  H   H8        1.0  0.48609  0.64630  0.68447  1.0000
  H   H9        1.0  0.95995  0.61487  0.37165  1.0000
  H   H10       1.0  0.45990  0.98730  0.62867  1.0000
  H   H11       1.0  0.75943  0.80449  0.18076  1.0000
  H   H12       1.0  0.25935  0.98562  0.81943  1.0000
  H   H13       1.0  0.65297  0.79581  0.33227  1.0000
  H   H14       1.0  0.15283  0.12879  0.66787  1.0000
  H   H15       1.0  0.37234  0.58352  0.42443  1.0000
  H   H16       1.0  0.87231  0.00906  0.57544  1.0000
  H   H17       1.0  0.28445  0.44498  0.33909  1.0000
  H   H18       1.0  0.78438  0.78507  0.66060  1.0000
  H   H19       1.0  0.48578  0.25688  0.53172  1.0000
  H   H20       1.0  0.98575  0.78995  0.46807  1.0000
  H   H21       1.0  0.48015  0.17394  0.32782  1.0000
  H   H22       1.0  0.98033  0.50263  0.67182  1.0000
  H   H23       1.0  0.70610  0.11836  0.40669  1.0000
  H   H24       1.0  0.20634  0.52633  0.59319  1.0000
  H   H25       1.0  0.69457  0.50760  0.53997  1.0000
  H   H26       1.0  0.19452  0.04892  0.46017  1.0000
  H   H27       1.0  0.83304  0.31760  0.53433  1.0000
  H   H28       1.0  0.33290  0.85326  0.46573  1.0000
  C   C1        1.0  0.50992  0.63013  0.23534  1.0000
  C   C2        1.0  0.00983  0.86602  0.76462  1.0000
  C   C3        1.0  0.56742  0.51729  0.14810  1.0000
  C   C4        1.0  0.06742  0.66575  0.85186  1.0000
  C   C5        1.0  0.70670  0.36017  0.22463  1.0000
  C   C6        1.0  0.20674  0.58542  0.77534  1.0000
  C   C7        1.0  0.88621  0.44260  0.26233  1.0000
  C   C8        1.0  0.38619  0.70566  0.73787  1.0000
  C   C9        1.0  0.83021  0.55493  0.34866  1.0000
  C   C10       1.0  0.33013  0.90443  0.65151  1.0000
  C   C11       1.0  0.69198  0.71213  0.27200  1.0000
  C   C12       1.0  0.19185  0.98471  0.72813  1.0000
  C   C13       1.0  0.41525  0.50255  0.36346  1.0000
  C   C14       1.0  0.91519  0.86698  0.63639  1.0000
  C   C15       1.0  0.55480  0.34662  0.44016  1.0000
  C   C16       1.0  0.05475  0.78798  0.55970  1.0000
  C   C17       1.0  0.60863  0.23354  0.35365  1.0000
  C   C18       1.0  0.10871  0.58823  0.64619  1.0000
  C   C19       1.0  0.73422  0.42894  0.47630  1.0000
  C   C20       1.0  0.23415  0.90644  0.52376  1.0000
  C   C21       1.0  0.37957  0.79016  0.15816  1.0000
  C   C22       1.0  0.87934  0.94858  0.84178  1.0000
  C   C23       1.0  0.76229  0.24038  0.14479  1.0000
  C   C24       1.0  0.26249  0.38564  0.85514  1.0000
  O   O1        1.0  0.42666  0.89525  0.04005  1.0000
  O   O2        1.0  0.92666  0.93572  0.95980  1.0000
  O   O3        1.0  0.22518  0.82110  0.21015  1.0000
  O   O4        1.0  0.72457  0.03107  0.78991  1.0000
  O   O5        1.0  0.90227  0.12754  0.18688  1.0000
  O   O6        1.0  0.40257  0.31509  0.81311  1.0000
  O   O7        1.0  0.66331  0.25561  0.04235  1.0000
  O   O8        1.0  0.16364  0.29812  0.95759  1.0000
