data_image0
_chemical_formula_structural       Li4H16C24N4O8
_chemical_formula_sum              "Li4 H16 C24 N4 O8"
_cell_length_a       4.92304
_cell_length_b       10.7317
_cell_length_c       13.7799
_cell_angle_alpha    90
_cell_angle_beta     90
_cell_angle_gamma    90

_space_group_name_H-M_alt    "P 1"
_space_group_IT_number       1

loop_
  _space_group_symop_operation_xyz
  'x, y, z'

loop_
  _atom_site_type_symbol
  _atom_site_label
  _atom_site_symmetry_multiplicity
  _atom_site_fract_x
  _atom_site_fract_y
  _atom_site_fract_z
  _atom_site_occupancy
  Li  Li1       1.0  0.36344  0.99397  0.43285  1.0000
  Li  Li2       1.0  0.86344  0.00604  0.56715  1.0000
  Li  Li3       1.0  0.36344  0.49396  0.06715  1.0000
  Li  Li4       1.0  0.86344  0.50604  0.93285  1.0000
  H   H1        1.0  0.93016  0.70813  0.59548  1.0000
  H   H2        1.0  0.43016  0.29187  0.40452  1.0000
  H   H3        1.0  0.93016  0.20813  0.90452  1.0000
  H   H4        1.0  0.43016  0.79187  0.09548  1.0000
  H   H5        1.0  0.50250  0.84916  0.80430  1.0000
  H   H6        1.0  0.00250  0.15084  0.19570  1.0000
  H   H7        1.0  0.50250  0.34916  0.69570  1.0000
  H   H8        1.0  0.00250  0.65084  0.30430  1.0000
  H   H9        1.0  0.75637  0.56287  0.72528  1.0000
  H   H10       1.0  0.25637  0.43713  0.27472  1.0000
  H   H11       1.0  0.75637  0.06287  0.77472  1.0000
  H   H12       1.0  0.25637  0.93713  0.22528  1.0000
  H   H13       1.0  0.30125  0.70190  0.92655  1.0000
  H   H14       1.0  0.80125  0.29810  0.07345  1.0000
  H   H15       1.0  0.30125  0.20190  0.57345  1.0000
  H   H16       1.0  0.80125  0.79810  0.42655  1.0000
  C   C1        1.0  0.34854  0.87666  0.61548  1.0000
  C   C2        1.0  0.84855  0.12334  0.38451  1.0000
  C   C3        1.0  0.34854  0.37666  0.88451  1.0000
  C   C4        1.0  0.84854  0.62334  0.11548  1.0000
  C   C5        1.0  0.01761  0.70845  0.66801  1.0000
  C   C6        1.0  0.51761  0.29155  0.33199  1.0000
  C   C7        1.0  0.01761  0.20845  0.83199  1.0000
  C   C8        1.0  0.51761  0.79155  0.16801  1.0000
  C   C9        1.0  0.22931  0.79025  0.69068  1.0000
  C   C10       1.0  0.72931  0.20975  0.30932  1.0000
  C   C11       1.0  0.22931  0.29025  0.80932  1.0000
  C   C12       1.0  0.72931  0.70975  0.19068  1.0000
  C   C13       1.0  0.33368  0.78838  0.78508  1.0000
  C   C14       1.0  0.83368  0.21162  0.21492  1.0000
  C   C15       1.0  0.33368  0.28838  0.71492  1.0000
  C   C16       1.0  0.83368  0.71162  0.28508  1.0000
  C   C17       1.0  0.92046  0.62877  0.73985  1.0000
  C   C18       1.0  0.42046  0.37123  0.26015  1.0000
  C   C19       1.0  0.92046  0.12877  0.76015  1.0000
  C   C20       1.0  0.42046  0.87123  0.23985  1.0000
  C   C21       1.0  0.22177  0.70679  0.85260  1.0000
  C   C22       1.0  0.72177  0.29321  0.14740  1.0000
  C   C23       1.0  0.22177  0.20679  0.64740  1.0000
  C   C24       1.0  0.72177  0.79321  0.35260  1.0000
  N   N1        1.0  0.01791  0.62791  0.83101  1.0000
  N   N2        1.0  0.51791  0.37209  0.16899  1.0000
  N   N3        1.0  0.01791  0.12791  0.66899  1.0000
  N   N4        1.0  0.51791  0.87209  0.33101  1.0000
  O   O1        1.0  0.19978  0.90512  0.54246  1.0000
  O   O2        1.0  0.69978  0.09488  0.45754  1.0000
  O   O3        1.0  0.19978  0.40512  0.95754  1.0000
  O   O4        1.0  0.69979  0.59488  0.04246  1.0000
  O   O5        1.0  0.58762  0.91427  0.62979  1.0000
  O   O6        1.0  0.08762  0.08573  0.37021  1.0000
  O   O7        1.0  0.58762  0.41427  0.87021  1.0000
  O   O8        1.0  0.08762  0.58573  0.12979  1.0000
