data_image0
_chemical_formula_structural       Li4H16C26S4N4O8
_chemical_formula_sum              "Li4 H16 C26 S4 N4 O8"
_cell_length_a       5.168
_cell_length_b       10.0961
_cell_length_c       14.6316
_cell_angle_alpha    90.0002
_cell_angle_beta     90
_cell_angle_gamma    94.5647

_space_group_name_H-M_alt    "P 1"
_space_group_IT_number       1

loop_
  _space_group_symop_operation_xyz
  'x, y, z'

loop_
  _atom_site_type_symbol
  _atom_site_label
  _atom_site_symmetry_multiplicity
  _atom_site_fract_x
  _atom_site_fract_y
  _atom_site_fract_z
  _atom_site_occupancy
  Li  Li1       1.0  0.30763  0.00238  0.56704  1.0000
  Li  Li2       1.0  0.69236  0.49762  0.06704  1.0000
  Li  Li3       1.0  0.69237  0.99762  0.43296  1.0000
  Li  Li4       1.0  0.30763  0.50238  0.93296  1.0000
  H   H1        1.0  0.14585  0.06678  0.75931  1.0000
  H   H2        1.0  0.85416  0.43323  0.25931  1.0000
  H   H3        1.0  0.85416  0.93322  0.24069  1.0000
  H   H4        1.0  0.14584  0.56678  0.74069  1.0000
  H   H5        1.0  0.95924  0.34569  0.71505  1.0000
  H   H6        1.0  0.04076  0.15431  0.21505  1.0000
  H   H7        1.0  0.04076  0.65431  0.28495  1.0000
  H   H8        1.0  0.95924  0.84569  0.78495  1.0000
  H   H9        1.0  0.31991  0.21131  0.88926  1.0000
  H   H10       1.0  0.68010  0.28869  0.38927  1.0000
  H   H11       1.0  0.68010  0.78869  0.11074  1.0000
  H   H12       1.0  0.31990  0.71131  0.61074  1.0000
  H   H13       1.0  0.75174  0.20245  0.59041  1.0000
  H   H14       1.0  0.24826  0.29755  0.09041  1.0000
  H   H15       1.0  0.24826  0.79755  0.40959  1.0000
  H   H16       1.0  0.75174  0.70245  0.90959  1.0000
  C   C1        1.0  0.00000  0.00001  0.00000  1.0000
  C   C2        1.0  0.00001  0.50000  0.50000  1.0000
  C   C3        1.0  0.32487  0.13108  0.75227  1.0000
  C   C4        1.0  0.67513  0.36891  0.25227  1.0000
  C   C5        1.0  0.67513  0.86892  0.24773  1.0000
  C   C6        1.0  0.32487  0.63108  0.74773  1.0000
  C   C7        1.0  0.65437  0.28923  0.81188  1.0000
  C   C8        1.0  0.34563  0.21077  0.31188  1.0000
  C   C9        1.0  0.34562  0.71077  0.18812  1.0000
  C   C10       1.0  0.65438  0.78923  0.68812  1.0000
  C   C11       1.0  0.77179  0.37422  0.88871  1.0000
  C   C12       1.0  0.22822  0.12579  0.38871  1.0000
  C   C13       1.0  0.22821  0.62578  0.11129  1.0000
  C   C14       1.0  0.77179  0.87422  0.61129  1.0000
  C   C15       1.0  0.77663  0.28665  0.72665  1.0000
  C   C16       1.0  0.22337  0.21335  0.22665  1.0000
  C   C17       1.0  0.22336  0.71335  0.27335  1.0000
  C   C18       1.0  0.77663  0.78665  0.77335  1.0000
  C   C19       1.0  0.42250  0.21004  0.82439  1.0000
  C   C20       1.0  0.57750  0.28996  0.32439  1.0000
  C   C21       1.0  0.57749  0.78996  0.17560  1.0000
  C   C22       1.0  0.42251  0.71003  0.67560  1.0000
  C   C23       1.0  0.66232  0.20673  0.65789  1.0000
  C   C24       1.0  0.33769  0.29327  0.15789  1.0000
  C   C25       1.0  0.33768  0.79327  0.34211  1.0000
  C   C26       1.0  0.66232  0.70673  0.84211  1.0000
  S   S1        1.0  0.80406  0.10452  0.02306  1.0000
  S   S2        1.0  0.19594  0.39548  0.52306  1.0000
  S   S3        1.0  0.19593  0.89549  0.97694  1.0000
  S   S4        1.0  0.80405  0.60451  0.47694  1.0000
  N   N1        1.0  0.44079  0.12921  0.67004  1.0000
  N   N2        1.0  0.55921  0.37079  0.17004  1.0000
  N   N3        1.0  0.55921  0.87079  0.32996  1.0000
  N   N4        1.0  0.44079  0.62921  0.82996  1.0000
  O   O1        1.0  0.62022  0.40060  0.95413  1.0000
  O   O2        1.0  0.37979  0.09941  0.45413  1.0000
  O   O3        1.0  0.37979  0.59941  0.04587  1.0000
  O   O4        1.0  0.62021  0.90059  0.54587  1.0000
  O   O5        1.0  0.00898  0.41275  0.88305  1.0000
  O   O6        1.0  0.99102  0.08725  0.38305  1.0000
  O   O7        1.0  0.99101  0.58725  0.11695  1.0000
  O   O8        1.0  0.00899  0.91275  0.61695  1.0000
