data_image0
_chemical_formula_structural       Li2H12C12N2O6
_chemical_formula_sum              "Li2 H12 C12 N2 O6"
_cell_length_a       6.2024
_cell_length_b       6.89197
_cell_length_c       9.89173
_cell_angle_alpha    69.5944
_cell_angle_beta     80.1184
_cell_angle_gamma    60.5003

_space_group_name_H-M_alt    "P 1"
_space_group_IT_number       1

loop_
  _space_group_symop_operation_xyz
  'x, y, z'

loop_
  _atom_site_type_symbol
  _atom_site_label
  _atom_site_symmetry_multiplicity
  _atom_site_fract_x
  _atom_site_fract_y
  _atom_site_fract_z
  _atom_site_occupancy
  Li  Li1       1.0  0.67604  0.54273  0.02029  1.0000
  Li  Li2       1.0  0.17602  0.56314  0.97958  1.0000
  H   H1        1.0  0.52704  0.23438  0.15284  1.0000
  H   H2        1.0  0.02670  0.38730  0.84714  1.0000
  H   H3        1.0  0.63839  0.19568  0.00108  1.0000
  H   H4        1.0  0.13829  0.19708  0.99889  1.0000
  H   H5        1.0  0.61385  0.45885  0.46440  1.0000
  H   H6        1.0  0.11417  0.92333  0.53557  1.0000
  H   H7        1.0  0.21275  0.62989  0.35542  1.0000
  H   H8        1.0  0.71267  0.98596  0.64468  1.0000
  H   H9        1.0  0.70569  0.34915  0.72710  1.0000
  H   H10       1.0  0.20648  0.07596  0.27287  1.0000
  H   H11       1.0  0.27362  0.52489  0.62433  1.0000
  H   H12       1.0  0.77383  0.14967  0.37575  1.0000
  C   C1        1.0  0.76216  0.47392  0.49696  1.0000
  C   C2        1.0  0.26253  0.97091  0.50303  1.0000
  C   C3        1.0  0.90687  0.55223  0.39109  1.0000
  C   C4        1.0  0.40692  0.94372  0.60892  1.0000
  C   C5        1.0  0.09580  0.57113  0.43587  1.0000
  C   C6        1.0  0.59582  0.00754  0.56417  1.0000
  C   C7        1.0  0.86645  0.60322  0.23244  1.0000
  C   C8        1.0  0.36614  0.83626  0.76754  1.0000
  C   C9        1.0  0.81281  0.41404  0.64151  1.0000
  C   C10       1.0  0.31337  0.05546  0.35850  1.0000
  C   C11       1.0  0.13196  0.51013  0.58308  1.0000
  C   C12       1.0  0.63215  0.09364  0.41695  1.0000
  N   N1        1.0  0.99427  0.43224  0.68408  1.0000
  N   N2        1.0  0.49475  0.11640  0.31593  1.0000
  O   O1        1.0  0.69980  0.56648  0.20432  1.0000
  O   O2        1.0  0.19954  0.77135  0.79563  1.0000
  O   O3        1.0  0.00651  0.67047  0.14214  1.0000
  O   O4        1.0  0.50614  0.81314  0.85790  1.0000
  O   O5        1.0  0.53713  0.32133  0.04349  1.0000
  O   O6        1.0  0.03692  0.36513  0.95639  1.0000
