data_image0
_chemical_formula_structural       Cd2H28C28N4O10
_chemical_formula_sum              "Cd2 H28 C28 N4 O10"
_cell_length_a       7.65106
_cell_length_b       10.2489
_cell_length_c       11.1237
_cell_angle_alpha    76.7665
_cell_angle_beta     71.1492
_cell_angle_gamma    63.4536

_space_group_name_H-M_alt    "P 1"
_space_group_IT_number       1

loop_
  _space_group_symop_operation_xyz
  'x, y, z'

loop_
  _atom_site_type_symbol
  _atom_site_label
  _atom_site_symmetry_multiplicity
  _atom_site_fract_x
  _atom_site_fract_y
  _atom_site_fract_z
  _atom_site_occupancy
  Cd  Cd1       1.0  0.28761  0.73817  0.21044  1.0000
  Cd  Cd2       1.0  0.71243  0.26182  0.78956  1.0000
  H   H1        1.0  0.26734  0.02111  0.31062  1.0000
  H   H2        1.0  0.73264  0.97889  0.68938  1.0000
  H   H3        1.0  0.64637  0.51908  0.52149  1.0000
  H   H4        1.0  0.35366  0.48095  0.47850  1.0000
  H   H5        1.0  0.69294  0.67819  0.48409  1.0000
  H   H6        1.0  0.30711  0.32181  0.51592  1.0000
  H   H7        1.0  0.21758  0.06592  0.76833  1.0000
  H   H8        1.0  0.78239  0.93408  0.23167  1.0000
  H   H9        1.0  0.99714  0.41154  0.43690  1.0000
  H   H10       1.0  0.00288  0.58845  0.56309  1.0000
  H   H11       1.0  0.91541  0.43884  0.30043  1.0000
  H   H12       1.0  0.08458  0.56118  0.69956  1.0000
  H   H13       1.0  0.22370  0.36607  0.00031  1.0000
  H   H14       1.0  0.77626  0.63393  0.99969  1.0000
  H   H15       1.0  0.30997  0.57490  0.98801  1.0000
  H   H16       1.0  0.69003  0.42509  0.01199  1.0000
  H   H17       1.0  0.21966  0.20507  0.86841  1.0000
  H   H18       1.0  0.78030  0.79492  0.13159  1.0000
  H   H19       1.0  0.24539  0.87999  0.64811  1.0000
  H   H20       1.0  0.75459  0.12000  0.35188  1.0000
  H   H21       1.0  0.29891  0.62316  0.75937  1.0000
  H   H22       1.0  0.70110  0.37683  0.24063  1.0000
  H   H23       1.0  0.25608  0.27355  0.22505  1.0000
  H   H24       1.0  0.74388  0.72646  0.77494  1.0000
  H   H25       1.0  0.91936  0.83174  0.44054  1.0000
  H   H26       1.0  0.08064  0.16826  0.55947  1.0000
  H   H27       1.0  0.05545  0.87227  0.48808  1.0000
  H   H28       1.0  0.94459  0.12772  0.51191  1.0000
  C   C1        1.0  0.25990  0.06449  0.21237  1.0000
  C   C2        1.0  0.74008  0.93551  0.78762  1.0000
  C   C3        1.0  0.70104  0.58837  0.44142  1.0000
  C   C4        1.0  0.29901  0.41164  0.55857  1.0000
  C   C5        1.0  0.04773  0.58122  0.30249  1.0000
  C   C6        1.0  0.95231  0.41878  0.69751  1.0000
  C   C7        1.0  0.24583  0.02394  0.01801  1.0000
  C   C8        1.0  0.75414  0.97605  0.98200  1.0000
  C   C9        1.0  0.24177  0.95564  0.81454  1.0000
  C   C10       1.0  0.75821  0.04435  0.18546  1.0000
  C   C11       1.0  0.54863  0.65276  0.36140  1.0000
  C   C12       1.0  0.45138  0.34726  0.63862  1.0000
  C   C13       1.0  0.25501  0.91847  0.94146  1.0000
  C   C14       1.0  0.74496  0.08153  0.05854  1.0000
  C   C15       1.0  0.91628  0.49778  0.37095  1.0000
  C   C16       1.0  0.08375  0.50221  0.62905  1.0000
  C   C17       1.0  0.23250  0.25659  0.04107  1.0000
  C   C18       1.0  0.76745  0.74341  0.95892  1.0000
  C   C19       1.0  0.29281  0.68153  0.93431  1.0000
  C   C20       1.0  0.70718  0.31846  0.06569  1.0000
  C   C21       1.0  0.23014  0.16562  0.96632  1.0000
  C   C22       1.0  0.76982  0.83438  0.03368  1.0000
  C   C23       1.0  0.25703  0.85050  0.74681  1.0000
  C   C24       1.0  0.74296  0.14948  0.25319  1.0000
  C   C25       1.0  0.28426  0.71029  0.80732  1.0000
  C   C26       1.0  0.71573  0.28970  0.19268  1.0000
  C   C27       1.0  0.24958  0.20550  0.16578  1.0000
  C   C28       1.0  0.75036  0.79453  0.83421  1.0000
  N   N1        1.0  0.27957  0.78231  0.99900  1.0000
  N   N2        1.0  0.72043  0.21768  0.00099  1.0000
  N   N3        1.0  0.25803  0.97696  0.14018  1.0000
  N   N4        1.0  0.74196  0.02304  0.85982  1.0000
  O   O1        1.0  0.60551  0.61749  0.24692  1.0000
  O   O2        1.0  0.39451  0.38250  0.75311  1.0000
  O   O3        1.0  0.98006  0.71831  0.31711  1.0000
  O   O4        1.0  0.01998  0.28169  0.68289  1.0000
  O   O5        1.0  0.36692  0.73530  0.41076  1.0000
  O   O6        1.0  0.63313  0.26476  0.58923  1.0000
  O   O7        1.0  0.22363  0.51386  0.23503  1.0000
  O   O8        1.0  0.77640  0.48612  0.76497  1.0000
  O   O9        1.0  0.91381  0.90035  0.49204  1.0000
  O   O10       1.0  0.08621  0.09965  0.50796  1.0000
