data_image0
_chemical_formula_structural       MnH24C28S4N8O2
_chemical_formula_sum              "Mn1 H24 C28 S4 N8 O2"
_cell_length_a       8.15807
_cell_length_b       9.36246
_cell_length_c       11.4637
_cell_angle_alpha    96.5021
_cell_angle_beta     104.218
_cell_angle_gamma    103.396

_space_group_name_H-M_alt    "P 1"
_space_group_IT_number       1

loop_
  _space_group_symop_operation_xyz
  'x, y, z'

loop_
  _atom_site_type_symbol
  _atom_site_label
  _atom_site_symmetry_multiplicity
  _atom_site_fract_x
  _atom_site_fract_y
  _atom_site_fract_z
  _atom_site_occupancy
  Mn  Mn1       1.0  0.50000  0.49999  0.50000  1.0000
  H   H1        1.0  0.62442  0.53536  0.78053  1.0000
  H   H2        1.0  0.37557  0.46464  0.21947  1.0000
  H   H3        1.0  0.76719  0.28474  0.52025  1.0000
  H   H4        1.0  0.23281  0.71527  0.47976  1.0000
  H   H5        1.0  0.91943  0.15797  0.67706  1.0000
  H   H6        1.0  0.08057  0.84204  0.32294  1.0000
  H   H7        1.0  0.92044  0.22304  0.89392  1.0000
  H   H8        1.0  0.07956  0.77696  0.10608  1.0000
  H   H9        1.0  0.82677  0.23745  0.05222  1.0000
  H   H10       1.0  0.17323  0.76255  0.94778  1.0000
  H   H11       1.0  0.79983  0.32941  0.25871  1.0000
  H   H12       1.0  0.20016  0.67059  0.74129  1.0000
  H   H13       1.0  0.57965  0.76907  0.94553  1.0000
  H   H14       1.0  0.42035  0.23094  0.05447  1.0000
  H   H15       1.0  0.58448  0.93502  0.04064  1.0000
  H   H16       1.0  0.41552  0.06499  0.95936  1.0000
  H   H17       1.0  0.78324  0.81008  0.82898  1.0000
  H   H18       1.0  0.21676  0.18992  0.17102  1.0000
  H   H19       1.0  0.92756  0.06211  0.19444  1.0000
  H   H20       1.0  0.07244  0.93790  0.80556  1.0000
  H   H21       1.0  0.73579  0.58586  0.35585  1.0000
  H   H22       1.0  0.26421  0.41414  0.64415  1.0000
  H   H23       1.0  0.75182  0.72410  0.45769  1.0000
  H   H24       1.0  0.24818  0.27590  0.54231  1.0000
  C   C1        1.0  0.69179  0.45159  0.76098  1.0000
  C   C2        1.0  0.30821  0.54840  0.23902  1.0000
  C   C3        1.0  0.77090  0.31162  0.61602  1.0000
  C   C4        1.0  0.22910  0.68838  0.38398  1.0000
  C   C5        1.0  0.85491  0.24090  0.70347  1.0000
  C   C6        1.0  0.14509  0.75910  0.29653  1.0000
  C   C7        1.0  0.85516  0.27750  0.82456  1.0000
  C   C8        1.0  0.14484  0.72250  0.17544  1.0000
  C   C9        1.0  0.77392  0.38688  0.85533  1.0000
  C   C10       1.0  0.22608  0.61312  0.14467  1.0000
  C   C11       1.0  0.76606  0.43131  0.98084  1.0000
  C   C12       1.0  0.23393  0.56869  0.01915  1.0000
  C   C13       1.0  0.79573  0.34302  0.07062  1.0000
  C   C14       1.0  0.20426  0.65698  0.92938  1.0000
  C   C15       1.0  0.78149  0.39418  0.18543  1.0000
  C   C16       1.0  0.21851  0.60583  0.81457  1.0000
  C   C17       1.0  0.71652  0.60117  0.11903  1.0000
  C   C18       1.0  0.28348  0.39884  0.88097  1.0000
  C   C19       1.0  0.65830  0.85314  0.02637  1.0000
  C   C20       1.0  0.34170  0.14687  0.97363  1.0000
  C   C21       1.0  0.83538  0.92772  0.01333  1.0000
  C   C22       1.0  0.16462  0.07228  0.98667  1.0000
  C   C23       1.0  0.87797  0.89310  0.90424  1.0000
  C   C24       1.0  0.12203  0.10690  0.09576  1.0000
  C   C25       1.0  0.95936  0.03489  0.10884  1.0000
  C   C26       1.0  0.04063  0.96511  0.89115  1.0000
  C   C27       1.0  0.49351  0.80025  0.66115  1.0000
  C   C28       1.0  0.50651  0.19972  0.33885  1.0000
  S   S1        1.0  0.66678  0.76787  0.16156  1.0000
  S   S2        1.0  0.33321  0.23213  0.83844  1.0000
  S   S3        1.0  0.43008  0.94330  0.70451  1.0000
  S   S4        1.0  0.56994  0.05668  0.29549  1.0000
  N   N1        1.0  0.68779  0.41400  0.64392  1.0000
  N   N2        1.0  0.31220  0.58600  0.35608  1.0000
  N   N3        1.0  0.74193  0.52308  0.21122  1.0000
  N   N4        1.0  0.25806  0.47693  0.78878  1.0000
  N   N5        1.0  0.72591  0.56144  0.00604  1.0000
  N   N6        1.0  0.27409  0.43857  0.99396  1.0000
  N   N7        1.0  0.53906  0.69393  0.62823  1.0000
  N   N8        1.0  0.46096  0.30606  0.37178  1.0000
  O   O1        1.0  0.73244  0.61636  0.44281  1.0000
  O   O2        1.0  0.26756  0.38364  0.55719  1.0000
