data_image0
_chemical_formula_structural       Cd2H28C20N8Cl4O2
_chemical_formula_sum              "Cd2 H28 C20 N8 Cl4 O2"
_cell_length_a       7.30419
_cell_length_b       9.74636
_cell_length_c       10.4522
_cell_angle_alpha    90.2236
_cell_angle_beta     98.3509
_cell_angle_gamma    112.192

_space_group_name_H-M_alt    "P 1"
_space_group_IT_number       1

loop_
  _space_group_symop_operation_xyz
  'x, y, z'

loop_
  _atom_site_type_symbol
  _atom_site_label
  _atom_site_symmetry_multiplicity
  _atom_site_fract_x
  _atom_site_fract_y
  _atom_site_fract_z
  _atom_site_occupancy
  Cd  Cd1       1.0  0.74880  0.04082  0.41965  1.0000
  Cd  Cd2       1.0  0.25120  0.95918  0.58035  1.0000
  H   H1        1.0  0.03633  0.90879  0.25713  1.0000
  H   H2        1.0  0.96368  0.09121  0.74286  1.0000
  H   H3        1.0  0.48309  0.93410  0.10482  1.0000
  H   H4        1.0  0.51692  0.06591  0.89519  1.0000
  H   H5        1.0  0.61553  0.81301  0.91108  1.0000
  H   H6        1.0  0.38447  0.18699  0.08892  1.0000
  H   H7        1.0  0.11607  0.79839  0.07792  1.0000
  H   H8        1.0  0.88393  0.20161  0.92207  1.0000
  H   H9        1.0  0.03654  0.85031  0.92268  1.0000
  H   H10       1.0  0.96346  0.14969  0.07731  1.0000
  H   H11       1.0  0.98509  0.58137  0.92909  1.0000
  H   H12       1.0  0.01490  0.41863  0.07091  1.0000
  H   H13       1.0  0.80611  0.55695  0.03688  1.0000
  H   H14       1.0  0.19389  0.44306  0.96312  1.0000
  H   H15       1.0  0.50086  0.41084  0.86899  1.0000
  H   H16       1.0  0.49913  0.58916  0.13100  1.0000
  H   H17       1.0  0.69855  0.39964  0.79240  1.0000
  H   H18       1.0  0.30145  0.60036  0.20760  1.0000
  H   H19       1.0  0.61045  0.53089  0.60710  1.0000
  H   H20       1.0  0.38956  0.46912  0.39290  1.0000
  H   H21       1.0  0.41135  0.35959  0.62477  1.0000
  H   H22       1.0  0.58866  0.64041  0.37522  1.0000
  H   H23       1.0  0.57005  0.77442  0.65044  1.0000
  H   H24       1.0  0.42994  0.22558  0.34956  1.0000
  H   H25       1.0  0.95304  0.60931  0.67302  1.0000
  H   H26       1.0  0.04695  0.39068  0.32698  1.0000
  H   H27       1.0  0.08030  0.37236  0.67629  1.0000
  H   H28       1.0  0.91970  0.62764  0.32371  1.0000
  C   C1        1.0  0.90143  0.89970  0.19155  1.0000
  C   C2        1.0  0.09858  0.10031  0.80844  1.0000
  C   C3        1.0  0.61765  0.91139  0.10735  1.0000
  C   C4        1.0  0.38235  0.08862  0.89265  1.0000
  C   C5        1.0  0.68045  0.85195  0.01081  1.0000
  C   C6        1.0  0.31955  0.14805  0.98920  1.0000
  C   C7        1.0  0.98504  0.78525  0.00524  1.0000
  C   C8        1.0  0.01496  0.21475  0.99476  1.0000
  C   C9        1.0  0.87561  0.62344  0.95845  1.0000
  C   C10       1.0  0.12439  0.37656  0.04155  1.0000
  C   C11       1.0  0.60677  0.46587  0.80212  1.0000
  C   C12       1.0  0.39322  0.53413  0.19788  1.0000
  C   C13       1.0  0.49899  0.47227  0.66856  1.0000
  C   C14       1.0  0.50101  0.52773  0.33144  1.0000
  C   C15       1.0  0.41941  0.70077  0.66154  1.0000
  C   C16       1.0  0.58058  0.29923  0.33846  1.0000
  C   C17       1.0  0.10098  0.60852  0.67308  1.0000
  C   C18       1.0  0.89902  0.39147  0.32692  1.0000
  C   C19       1.0  0.16228  0.49115  0.67655  1.0000
  C   C20       1.0  0.83772  0.50885  0.32345  1.0000
  N   N1        1.0  0.75622  0.94052  0.21882  1.0000
  N   N2        1.0  0.24379  0.05948  0.78118  1.0000
  N   N3        1.0  0.86053  0.84466  0.06629  1.0000
  N   N4        1.0  0.13948  0.15535  0.93371  1.0000
  N   N5        1.0  0.36483  0.55173  0.66878  1.0000
  N   N6        1.0  0.63517  0.44827  0.33122  1.0000
  N   N7        1.0  0.26252  0.73848  0.66357  1.0000
  N   N8        1.0  0.73747  0.26151  0.33643  1.0000
  Cl  Cl1       1.0  0.65623  0.11946  0.63800  1.0000
  Cl  Cl2       1.0  0.34377  0.88054  0.36200  1.0000
  Cl  Cl3       1.0  0.85172  0.82476  0.53116  1.0000
  Cl  Cl4       1.0  0.14828  0.17523  0.46885  1.0000
  O   O1        1.0  0.72918  0.61459  0.84998  1.0000
  O   O2        1.0  0.27081  0.38541  0.15002  1.0000
