data_image0
_chemical_formula_structural       K2ZrCdH16C8O24
_chemical_formula_sum              "K2 Zr1 Cd1 H16 C8 O24"
_cell_length_a       8.82286
_cell_length_b       9.15812
_cell_length_c       9.15812
_cell_angle_alpha    76.5827
_cell_angle_beta     61.2032
_cell_angle_gamma    61.2033

_space_group_name_H-M_alt    "P 1"
_space_group_IT_number       1

loop_
  _space_group_symop_operation_xyz
  'x, y, z'

loop_
  _atom_site_type_symbol
  _atom_site_label
  _atom_site_symmetry_multiplicity
  _atom_site_fract_x
  _atom_site_fract_y
  _atom_site_fract_z
  _atom_site_occupancy
  K   K1        1.0  0.50000  0.00000  1.00000  1.0000
  K   K2        1.0  0.75000  0.50000  0.50000  1.0000
  Zr  Zr1       1.0  0.25000  0.50000  0.50000  1.0000
  Cd  Cd1       1.0  1.00000  0.00000  0.00000  1.0000
  H   H1        1.0  0.38722  0.35351  0.83538  1.0000
  H   H2        1.0  0.57610  0.64649  0.16462  1.0000
  H   H3        1.0  0.77741  0.83538  0.64649  1.0000
  H   H4        1.0  0.25928  0.16462  0.35350  1.0000
  H   H5        1.0  0.45527  0.42408  0.92279  1.0000
  H   H6        1.0  0.80214  0.57593  0.07721  1.0000
  H   H7        1.0  0.62194  0.92279  0.57592  1.0000
  H   H8        1.0  0.12065  0.07721  0.42407  1.0000
  H   H9        1.0  0.45011  0.92189  0.42315  1.0000
  H   H10       1.0  0.79515  0.07811  0.57685  1.0000
  H   H11       1.0  0.12675  0.42315  0.07811  1.0000
  H   H12       1.0  0.62800  0.57685  0.92189  1.0000
  H   H13       1.0  0.67744  0.84832  0.33874  1.0000
  H   H14       1.0  0.86450  0.15168  0.66126  1.0000
  H   H15       1.0  0.98382  0.33874  0.15168  1.0000
  H   H16       1.0  0.47424  0.66126  0.84832  1.0000
  C   C1        1.0  0.55830  0.22399  0.23684  1.0000
  C   C2        1.0  0.01912  0.77602  0.76316  1.0000
  C   C3        1.0  0.20486  0.23684  0.77602  1.0000
  C   C4        1.0  0.21772  0.76316  0.22398  1.0000
  C   C5        1.0  0.67501  0.27856  0.27456  1.0000
  C   C6        1.0  0.22812  0.72144  0.72545  1.0000
  C   C7        1.0  0.05044  0.27455  0.72144  1.0000
  C   C8        1.0  0.04643  0.72545  0.27856  1.0000
  O   O1        1.0  0.37404  0.30575  0.32020  1.0000
  O   O2        1.0  0.99999  0.69425  0.67980  1.0000
  O   O3        1.0  0.30576  0.32019  0.69425  1.0000
  O   O4        1.0  0.32021  0.67980  0.30575  1.0000
  O   O5        1.0  0.64180  0.11059  0.13552  1.0000
  O   O6        1.0  0.88790  0.88941  0.86448  1.0000
  O   O7        1.0  0.22268  0.13552  0.88942  1.0000
  O   O8        1.0  0.24762  0.86448  0.11059  1.0000
  O   O9        1.0  0.85457  0.21084  0.19935  1.0000
  O   O10       1.0  0.26476  0.78916  0.80065  1.0000
  O   O11       1.0  0.94608  0.19935  0.78916  1.0000
  O   O12       1.0  0.93459  0.80065  0.21084  1.0000
  O   O13       1.0  0.57267  0.39390  0.38391  1.0000
  O   O14       1.0  0.35047  0.60610  0.61609  1.0000
  O   O15       1.0  0.04343  0.38391  0.60610  1.0000
  O   O16       1.0  0.03343  0.61609  0.39390  1.0000
  O   O17       1.0  0.38017  0.36190  0.94375  1.0000
  O   O18       1.0  0.68582  0.63810  0.05625  1.0000
  O   O19       1.0  0.67608  0.94375  0.63810  1.0000
  O   O20       1.0  0.25793  0.05625  0.36190  1.0000
  O   O21       1.0  0.56517  0.85765  0.44550  1.0000
  O   O22       1.0  0.86832  0.14235  0.55450  1.0000
  O   O23       1.0  0.98933  0.44550  0.14235  1.0000
  O   O24       1.0  0.57718  0.55450  0.85765  1.0000
