data_image0
_chemical_formula_structural       Zn2H20C12S4N8
_chemical_formula_sum              "Zn2 H20 C12 S4 N8"
_cell_length_a       7.38541
_cell_length_b       8.0491
_cell_length_c       9.43223
_cell_angle_alpha    91.9015
_cell_angle_beta     112.041
_cell_angle_gamma    93.3039

_space_group_name_H-M_alt    "P 1"
_space_group_IT_number       1

loop_
  _space_group_symop_operation_xyz
  'x, y, z'

loop_
  _atom_site_type_symbol
  _atom_site_label
  _atom_site_symmetry_multiplicity
  _atom_site_fract_x
  _atom_site_fract_y
  _atom_site_fract_z
  _atom_site_occupancy
  Zn  Zn1       1.0  0.21185  0.82634  0.26839  1.0000
  Zn  Zn2       1.0  0.78814  0.17367  0.73160  1.0000
  H   H1        1.0  0.26406  0.81386  0.60520  1.0000
  H   H2        1.0  0.73596  0.18615  0.39480  1.0000
  H   H3        1.0  0.96253  0.78437  0.39416  1.0000
  H   H4        1.0  0.03748  0.21563  0.60584  1.0000
  H   H5        1.0  0.29342  0.02662  0.56898  1.0000
  H   H6        1.0  0.70659  0.97338  0.43103  1.0000
  H   H7        1.0  0.04389  0.78079  0.92073  1.0000
  H   H8        1.0  0.95611  0.21921  0.07927  1.0000
  H   H9        1.0  0.82892  0.99347  0.22182  1.0000
  H   H10       1.0  0.17107  0.00652  0.77817  1.0000
  H   H11       1.0  0.89630  0.66950  0.08524  1.0000
  H   H12       1.0  0.10369  0.33050  0.91476  1.0000
  H   H13       1.0  0.02863  0.13625  0.33631  1.0000
  H   H14       1.0  0.97137  0.86374  0.66368  1.0000
  H   H15       1.0  0.22272  0.63317  0.98148  1.0000
  H   H16       1.0  0.77727  0.36682  0.01852  1.0000
  H   H17       1.0  0.22090  0.44843  0.19007  1.0000
  H   H18       1.0  0.77909  0.55156  0.80993  1.0000
  H   H19       1.0  0.03766  0.46854  0.26711  1.0000
  H   H20       1.0  0.96234  0.53146  0.73290  1.0000
  C   C1        1.0  0.58725  0.64767  0.39009  1.0000
  C   C2        1.0  0.41272  0.35233  0.60992  1.0000
  C   C3        1.0  0.33238  0.11176  0.10398  1.0000
  C   C4        1.0  0.66763  0.88824  0.89602  1.0000
  C   C5        1.0  0.18467  0.92469  0.56296  1.0000
  C   C6        1.0  0.81533  0.07531  0.43704  1.0000
  C   C7        1.0  0.93088  0.02923  0.33941  1.0000
  C   C8        1.0  0.06915  0.97078  0.66060  1.0000
  C   C9        1.0  0.06681  0.47352  0.16142  1.0000
  C   C10       1.0  0.93320  0.52647  0.83858  1.0000
  C   C11       1.0  0.06911  0.65436  0.95963  1.0000
  C   C12       1.0  0.93089  0.34562  0.04037  1.0000
  S   S1        1.0  0.77285  0.54392  0.40430  1.0000
  S   S2        1.0  0.22712  0.45608  0.59570  1.0000
  S   S3        1.0  0.42028  0.23747  0.01231  1.0000
  S   S4        1.0  0.57975  0.76253  0.98770  1.0000
  N   N1        1.0  0.45377  0.72733  0.38260  1.0000
  N   N2        1.0  0.54621  0.27268  0.61740  1.0000
  N   N3        1.0  0.26209  0.02205  0.17034  1.0000
  N   N4        1.0  0.73791  0.97796  0.82965  1.0000
  N   N5        1.0  0.05509  0.88844  0.39918  1.0000
  N   N6        1.0  0.94492  0.11156  0.60081  1.0000
  N   N7        1.0  0.04054  0.64509  0.10725  1.0000
  N   N8        1.0  0.95946  0.35490  0.89275  1.0000
