data_image0
_chemical_formula_structural       Co4H40C16N8Cl8
_chemical_formula_sum              "Co4 H40 C16 N8 Cl8"
_cell_length_a       6.24309
_cell_length_b       10.3239
_cell_length_c       11.8878
_cell_angle_alpha    89.9985
_cell_angle_beta     102.75
_cell_angle_gamma    90.0001

_space_group_name_H-M_alt    "P 1"
_space_group_IT_number       1

loop_
  _space_group_symop_operation_xyz
  'x, y, z'

loop_
  _atom_site_type_symbol
  _atom_site_label
  _atom_site_symmetry_multiplicity
  _atom_site_fract_x
  _atom_site_fract_y
  _atom_site_fract_z
  _atom_site_occupancy
  Co  Co1       1.0  0.14392  0.36319  0.76735  1.0000
  Co  Co2       1.0  0.64393  0.13681  0.26734  1.0000
  Co  Co3       1.0  0.85609  0.63682  0.23267  1.0000
  Co  Co4       1.0  0.35607  0.86318  0.73265  1.0000
  H   H1        1.0  0.77080  0.40286  0.56053  1.0000
  H   H2        1.0  0.27079  0.09714  0.06051  1.0000
  H   H3        1.0  0.22922  0.59713  0.43947  1.0000
  H   H4        1.0  0.72919  0.90285  0.93946  1.0000
  H   H5        1.0  0.77702  0.54992  0.64002  1.0000
  H   H6        1.0  0.27701  0.95008  0.14000  1.0000
  H   H7        1.0  0.22296  0.45006  0.35999  1.0000
  H   H8        1.0  0.72298  0.04991  0.85998  1.0000
  H   H9        1.0  0.36952  0.41484  0.57314  1.0000
  H   H10       1.0  0.86953  0.08514  0.07312  1.0000
  H   H11       1.0  0.63048  0.58514  0.42687  1.0000
  H   H12       1.0  0.13049  0.91485  0.92686  1.0000
  H   H13       1.0  0.99503  0.26628  0.96922  1.0000
  H   H14       1.0  0.49502  0.23372  0.46920  1.0000
  H   H15       1.0  0.00499  0.73373  0.03080  1.0000
  H   H16       1.0  0.50497  0.76625  0.53078  1.0000
  H   H17       1.0  0.22932  0.36424  0.02520  1.0000
  H   H18       1.0  0.72931  0.13577  0.52517  1.0000
  H   H19       1.0  0.77073  0.63579  0.97483  1.0000
  H   H20       1.0  0.27065  0.86422  0.47480  1.0000
  H   H21       1.0  0.24027  0.58784  0.94258  1.0000
  H   H22       1.0  0.74025  0.91215  0.44256  1.0000
  H   H23       1.0  0.75977  0.41219  0.05745  1.0000
  H   H24       1.0  0.25972  0.08783  0.55742  1.0000
  H   H25       1.0  0.01104  0.64134  0.83554  1.0000
  H   H26       1.0  0.51100  0.85866  0.33551  1.0000
  H   H27       1.0  0.98896  0.35869  0.16448  1.0000
  H   H28       1.0  0.48899  0.14131  0.66447  1.0000
  H   H29       1.0  0.83287  0.43982  0.85376  1.0000
  H   H30       1.0  0.33286  0.06020  0.35373  1.0000
  H   H31       1.0  0.16717  0.56020  0.14628  1.0000
  H   H32       1.0  0.66714  0.93978  0.64625  1.0000
  H   H33       1.0  0.16000  0.56528  0.65118  1.0000
  H   H34       1.0  0.65999  0.93473  0.15117  1.0000
  H   H35       1.0  0.83999  0.43471  0.34883  1.0000
  H   H36       1.0  0.33998  0.06530  0.84881  1.0000
  H   H37       1.0  0.12743  0.32353  0.51614  1.0000
  H   H38       1.0  0.62744  0.17646  0.01611  1.0000
  H   H39       1.0  0.87257  0.67646  0.48388  1.0000
  H   H40       1.0  0.37258  0.82355  0.98386  1.0000
  C   C1        1.0  0.84822  0.49893  0.57573  1.0000
  C   C2        1.0  0.34828  0.00106  0.07572  1.0000
  C   C3        1.0  0.15179  0.50104  0.42430  1.0000
  C   C4        1.0  0.65182  0.99895  0.92429  1.0000
  C   C5        1.0  0.19274  0.42194  0.53555  1.0000
  C   C6        1.0  0.69276  0.07803  0.03554  1.0000
  C   C7        1.0  0.80725  0.57804  0.46448  1.0000
  C   C8        1.0  0.30724  0.92195  0.96448  1.0000
  C   C9        1.0  0.05010  0.36549  0.99294  1.0000
  C   C10       1.0  0.55014  0.13453  0.49294  1.0000
  C   C11       1.0  0.94986  0.63455  0.00705  1.0000
  C   C12       1.0  0.44984  0.86547  0.50705  1.0000
  C   C13       1.0  0.06056  0.58266  0.91406  1.0000
  C   C14       1.0  0.56055  0.91734  0.41404  1.0000
  C   C15       1.0  0.93943  0.41734  0.08596  1.0000
  C   C16       1.0  0.43945  0.08266  0.58594  1.0000
  N   N1        1.0  0.08572  0.47776  0.62414  1.0000
  N   N2        1.0  0.58572  0.02223  0.12411  1.0000
  N   N3        1.0  0.91427  0.52224  0.37585  1.0000
  N   N4        1.0  0.41427  0.97774  0.87582  1.0000
  N   N5        1.0  0.00059  0.44549  0.88650  1.0000
  N   N6        1.0  0.50059  0.05453  0.38648  1.0000
  N   N7        1.0  0.99939  0.55456  0.11353  1.0000
  N   N8        1.0  0.49941  0.94547  0.61352  1.0000
  Cl  Cl1       1.0  0.50222  0.32700  0.82908  1.0000
  Cl  Cl2       1.0  0.00223  0.17300  0.32908  1.0000
  Cl  Cl3       1.0  0.49777  0.67300  0.17093  1.0000
  Cl  Cl4       1.0  0.99779  0.82701  0.67092  1.0000
  Cl  Cl5       1.0  0.99519  0.16648  0.73726  1.0000
  Cl  Cl6       1.0  0.49520  0.33353  0.23726  1.0000
  Cl  Cl7       1.0  0.00481  0.83353  0.26275  1.0000
  Cl  Cl8       1.0  0.50481  0.66647  0.76274  1.0000
