data_image0
_chemical_formula_structural       Mn2H24C28S2N4O8
_chemical_formula_sum              "Mn2 H24 C28 S2 N4 O8"
_cell_length_a       7.94569
_cell_length_b       9.01643
_cell_length_c       10.4255
_cell_angle_alpha    73.8257
_cell_angle_beta     72.8688
_cell_angle_gamma    80.0292

_space_group_name_H-M_alt    "P 1"
_space_group_IT_number       1

loop_
  _space_group_symop_operation_xyz
  'x, y, z'

loop_
  _atom_site_type_symbol
  _atom_site_label
  _atom_site_symmetry_multiplicity
  _atom_site_fract_x
  _atom_site_fract_y
  _atom_site_fract_z
  _atom_site_occupancy
  Mn  Mn1       1.0  0.40526  0.49222  0.17836  1.0000
  Mn  Mn2       1.0  0.59474  0.50778  0.82164  1.0000
  H   H1        1.0  0.14841  0.21711  0.91456  1.0000
  H   H2        1.0  0.85159  0.78291  0.08542  1.0000
  H   H3        1.0  0.98220  0.36791  0.95452  1.0000
  H   H4        1.0  0.01780  0.63210  0.04547  1.0000
  H   H5        1.0  0.86700  0.04618  0.01833  1.0000
  H   H6        1.0  0.13299  0.95384  0.98166  1.0000
  H   H7        1.0  0.75624  0.00422  0.19948  1.0000
  H   H8        1.0  0.24378  0.99577  0.80052  1.0000
  H   H9        1.0  0.20853  0.19222  0.33775  1.0000
  H   H10       1.0  0.79147  0.80778  0.66225  1.0000
  H   H11       1.0  0.02606  0.07005  0.57515  1.0000
  H   H12       1.0  0.97394  0.92995  0.42485  1.0000
  H   H13       1.0  0.97003  0.20855  0.76404  1.0000
  H   H14       1.0  0.02996  0.79145  0.23597  1.0000
  H   H15       1.0  0.10823  0.45459  0.71226  1.0000
  H   H16       1.0  0.89176  0.54541  0.28774  1.0000
  H   H17       1.0  0.27357  0.63130  0.66310  1.0000
  H   H18       1.0  0.72644  0.36870  0.33691  1.0000
  H   H19       1.0  0.37998  0.89067  0.57537  1.0000
  H   H20       1.0  0.62002  0.10933  0.42464  1.0000
  H   H21       1.0  0.46962  0.00586  0.31600  1.0000
  H   H22       1.0  0.53037  0.99414  0.68401  1.0000
  H   H23       1.0  0.47012  0.83766  0.15985  1.0000
  H   H24       1.0  0.52988  0.16234  0.84016  1.0000
  C   C1        1.0  0.22406  0.37441  0.00383  1.0000
  C   C2        1.0  0.77594  0.62560  0.99614  1.0000
  C   C3        1.0  0.08578  0.28442  0.99224  1.0000
  C   C4        1.0  0.91422  0.71559  0.00775  1.0000
  C   C5        1.0  0.81236  0.09508  0.10931  1.0000
  C   C6        1.0  0.18764  0.90491  0.89069  1.0000
  C   C7        1.0  0.67280  0.22976  0.08090  1.0000
  C   C8        1.0  0.32721  0.77024  0.91909  1.0000
  C   C9        1.0  0.18553  0.24374  0.42506  1.0000
  C   C10       1.0  0.81446  0.75626  0.57495  1.0000
  C   C11       1.0  0.08417  0.17751  0.55632  1.0000
  C   C12       1.0  0.91583  0.82249  0.44369  1.0000
  C   C13       1.0  0.05508  0.25362  0.66170  1.0000
  C   C14       1.0  0.94492  0.74638  0.33831  1.0000
  C   C15       1.0  0.13115  0.39116  0.63295  1.0000
  C   C16       1.0  0.86886  0.60883  0.36706  1.0000
  C   C17       1.0  0.23259  0.44978  0.49871  1.0000
  C   C18       1.0  0.76742  0.55022  0.50129  1.0000
  C   C19       1.0  0.30975  0.59922  0.45708  1.0000
  C   C20       1.0  0.69025  0.40077  0.54293  1.0000
  C   C21       1.0  0.31525  0.68038  0.55208  1.0000
  C   C22       1.0  0.68475  0.31962  0.44793  1.0000
  C   C23       1.0  0.37542  0.82694  0.50206  1.0000
  C   C24       1.0  0.62457  0.17306  0.49795  1.0000
  C   C25       1.0  0.42823  0.88897  0.35957  1.0000
  C   C26       1.0  0.57176  0.11103  0.64043  1.0000
  C   C27       1.0  0.42665  0.79740  0.27208  1.0000
  C   C28       1.0  0.57334  0.20260  0.72792  1.0000
  S   S1        1.0  0.98674  0.15810  0.15637  1.0000
  S   S2        1.0  0.01327  0.84189  0.84362  1.0000
  N   N1        1.0  0.25766  0.37681  0.39659  1.0000
  N   N2        1.0  0.74234  0.62319  0.60342  1.0000
  N   N3        1.0  0.36979  0.65584  0.31925  1.0000
  N   N4        1.0  0.63021  0.34416  0.68075  1.0000
  O   O1        1.0  0.21890  0.38799  0.12286  1.0000
  O   O2        1.0  0.78108  0.61202  0.87713  1.0000
  O   O3        1.0  0.33156  0.43106  0.89031  1.0000
  O   O4        1.0  0.66845  0.56894  0.10968  1.0000
  O   O5        1.0  0.68888  0.29896  0.95425  1.0000
  O   O6        1.0  0.31112  0.70105  0.04575  1.0000
  O   O7        1.0  0.55596  0.26392  0.18428  1.0000
  O   O8        1.0  0.44404  0.73607  0.81573  1.0000
