data_image0
_chemical_formula_structural       H24Rh2C32N2O8
_chemical_formula_sum              "H24 Rh2 C32 N2 O8"
_cell_length_a       9.54433
_cell_length_b       10.0615
_cell_length_c       10.9353
_cell_angle_alpha    71.7161
_cell_angle_beta     64.1251
_cell_angle_gamma    61.7099

_space_group_name_H-M_alt    "P 1"
_space_group_IT_number       1

loop_
  _space_group_symop_operation_xyz
  'x, y, z'

loop_
  _atom_site_type_symbol
  _atom_site_label
  _atom_site_symmetry_multiplicity
  _atom_site_fract_x
  _atom_site_fract_y
  _atom_site_fract_z
  _atom_site_occupancy
  H   H1        1.0  0.88668  0.69655  0.07936  1.0000
  H   H2        1.0  0.33694  0.69654  0.07980  1.0000
  H   H3        1.0  0.11332  0.30345  0.92064  1.0000
  H   H4        1.0  0.66305  0.30345  0.92020  1.0000
  H   H5        1.0  0.93377  0.83759  0.84291  1.0000
  H   H6        1.0  0.38571  0.83772  0.84345  1.0000
  H   H7        1.0  0.06623  0.16241  0.15709  1.0000
  H   H8        1.0  0.61428  0.16228  0.15655  1.0000
  H   H9        1.0  0.18232  0.91093  0.72510  1.0000
  H   H10       1.0  0.81768  0.08907  0.27490  1.0000
  H   H11       1.0  0.05713  0.05562  0.38031  1.0000
  H   H12       1.0  0.50670  0.05592  0.38009  1.0000
  H   H13       1.0  0.94287  0.94438  0.61969  1.0000
  H   H14       1.0  0.49329  0.94408  0.61992  1.0000
  H   H15       1.0  0.22838  0.80974  0.28162  1.0000
  H   H16       1.0  0.67997  0.81012  0.28140  1.0000
  H   H17       1.0  0.77162  0.19025  0.71838  1.0000
  H   H18       1.0  0.32003  0.18988  0.71861  1.0000
  H   H19       1.0  0.54115  0.69362  0.22396  1.0000
  H   H20       1.0  0.45886  0.30637  0.77605  1.0000
  H   H21       1.0  0.48616  0.63596  0.65650  1.0000
  H   H22       1.0  0.22141  0.63607  0.65630  1.0000
  H   H23       1.0  0.51385  0.36405  0.34349  1.0000
  H   H24       1.0  0.77861  0.36395  0.34369  1.0000
  Rh  Rh1       1.0  0.87309  0.49997  0.50006  1.0000
  Rh  Rh2       1.0  0.12691  0.50003  0.49994  1.0000
  C   C1        1.0  0.10771  0.68972  0.09451  1.0000
  C   C2        1.0  0.89228  0.31027  0.90548  1.0000
  C   C3        1.0  0.99545  0.72806  0.02671  1.0000
  C   C4        1.0  0.24950  0.72805  0.02700  1.0000
  C   C5        1.0  0.00455  0.27194  0.97328  1.0000
  C   C6        1.0  0.75050  0.27194  0.97300  1.0000
  C   C7        1.0  0.02263  0.80684  0.89425  1.0000
  C   C8        1.0  0.27629  0.80690  0.89457  1.0000
  C   C9        1.0  0.97737  0.19316  0.10575  1.0000
  C   C10       1.0  0.72371  0.19309  0.10544  1.0000
  C   C11       1.0  0.16220  0.84759  0.82837  1.0000
  C   C12       1.0  0.83780  0.15241  0.17163  1.0000
  C   C13       1.0  0.07298  0.61444  0.23904  1.0000
  C   C14       1.0  0.92701  0.38556  0.76095  1.0000
  C   C15       1.0  0.27290  0.07247  0.38147  1.0000
  C   C16       1.0  0.72710  0.92752  0.61853  1.0000
  C   C17       1.0  0.19396  0.00180  0.35585  1.0000
  C   C18       1.0  0.44813  0.00199  0.35575  1.0000
  C   C19       1.0  0.80604  0.99820  0.64415  1.0000
  C   C20       1.0  0.55187  0.99801  0.64425  1.0000
  C   C21       1.0  0.29005  0.86555  0.29984  1.0000
  C   C22       1.0  0.54428  0.86573  0.29977  1.0000
  C   C23       1.0  0.70995  0.13444  0.70016  1.0000
  C   C24       1.0  0.45572  0.13427  0.70024  1.0000
  C   C25       1.0  0.46554  0.79937  0.26931  1.0000
  C   C26       1.0  0.53446  0.20063  0.73069  1.0000
  C   C27       1.0  0.17268  0.22402  0.43035  1.0000
  C   C28       1.0  0.82732  0.77598  0.56965  1.0000
  C   C29       1.0  0.49179  0.57508  0.58666  1.0000
  C   C30       1.0  0.34651  0.57515  0.58655  1.0000
  C   C31       1.0  0.50822  0.42493  0.41334  1.0000
  C   C32       1.0  0.65350  0.42487  0.41345  1.0000
  N   N1        1.0  0.64627  0.49994  0.50010  1.0000
  N   N2        1.0  0.35374  0.50007  0.49990  1.0000
  O   O1        1.0  0.93869  0.58626  0.29673  1.0000
  O   O2        1.0  0.17780  0.58628  0.29668  1.0000
  O   O3        1.0  0.06131  0.41373  0.70326  1.0000
  O   O4        1.0  0.82220  0.41372  0.70331  1.0000
  O   O5        1.0  0.01383  0.28448  0.44832  1.0000
  O   O6        1.0  0.25316  0.28454  0.44823  1.0000
  O   O7        1.0  0.98617  0.71552  0.55167  1.0000
  O   O8        1.0  0.74684  0.71546  0.55177  1.0000
