data_image0
_chemical_formula_structural       Zn2H30C46N6Cl8O8
_chemical_formula_sum              "Zn2 H30 C46 N6 Cl8 O8"
_cell_length_a       8.75809
_cell_length_b       8.89178
_cell_length_c       17.8073
_cell_angle_alpha    89.3297
_cell_angle_beta     75.7448
_cell_angle_gamma    60.465

_space_group_name_H-M_alt    "P 1"
_space_group_IT_number       1

loop_
  _space_group_symop_operation_xyz
  'x, y, z'

loop_
  _atom_site_type_symbol
  _atom_site_label
  _atom_site_symmetry_multiplicity
  _atom_site_fract_x
  _atom_site_fract_y
  _atom_site_fract_z
  _atom_site_occupancy
  Zn  Zn1       1.0  0.80897  0.24986  0.74995  1.0000
  Zn  Zn2       1.0  0.19102  0.75014  0.25005  1.0000
  H   H1        1.0  0.16185  0.15183  0.63263  1.0000
  H   H2        1.0  0.94611  0.34732  0.86752  1.0000
  H   H3        1.0  0.83812  0.84818  0.36738  1.0000
  H   H4        1.0  0.05387  0.65269  0.13248  1.0000
  H   H5        1.0  0.45501  0.14377  0.62796  1.0000
  H   H6        1.0  0.22588  0.35663  0.87223  1.0000
  H   H7        1.0  0.54497  0.85623  0.37205  1.0000
  H   H8        1.0  0.77408  0.64340  0.12777  1.0000
  H   H9        1.0  0.48596  0.25056  0.75008  1.0000
  H   H10       1.0  0.51402  0.74946  0.24992  1.0000
  H   H11       1.0  0.14722  0.91114  0.76836  1.0000
  H   H12       1.0  0.82709  0.58860  0.73147  1.0000
  H   H13       1.0  0.85273  0.08888  0.23165  1.0000
  H   H14       1.0  0.17291  0.41139  0.26852  1.0000
  H   H15       1.0  0.31575  0.59150  0.72157  1.0000
  H   H16       1.0  0.62898  0.90824  0.77841  1.0000
  H   H17       1.0  0.68427  0.40852  0.27844  1.0000
  H   H18       1.0  0.37103  0.09176  0.22158  1.0000
  H   H19       1.0  0.21060  0.48373  0.62662  1.0000
  H   H20       1.0  0.32112  0.01596  0.87352  1.0000
  H   H21       1.0  0.78949  0.51624  0.37339  1.0000
  H   H22       1.0  0.67890  0.98405  0.12647  1.0000
  H   H23       1.0  0.94438  0.70028  0.58063  1.0000
  H   H24       1.0  0.22544  0.79948  0.91942  1.0000
  H   H25       1.0  0.05572  0.29964  0.41935  1.0000
  H   H26       1.0  0.77458  0.20053  0.08059  1.0000
  H   H27       1.0  0.79047  0.01641  0.63421  1.0000
  H   H28       1.0  0.44133  0.48343  0.86568  1.0000
  H   H29       1.0  0.20957  0.98353  0.36577  1.0000
  H   H30       1.0  0.55867  0.51658  0.13433  1.0000
  C   C1        1.0  0.18472  0.19258  0.68425  1.0000
  C   C2        1.0  0.06145  0.30685  0.81592  1.0000
  C   C3        1.0  0.81525  0.80743  0.31576  1.0000
  C   C4        1.0  0.93852  0.69316  0.18408  1.0000
  C   C5        1.0  0.34553  0.19030  0.68225  1.0000
  C   C6        1.0  0.21764  0.30978  0.81794  1.0000
  C   C7        1.0  0.65444  0.80971  0.31776  1.0000
  C   C8        1.0  0.78232  0.69024  0.18206  1.0000
  C   C9        1.0  0.36220  0.25024  0.75008  1.0000
  C   C10       1.0  0.63776  0.74977  0.24992  1.0000
  C   C11       1.0  0.10574  0.85886  0.72730  1.0000
  C   C12       1.0  0.69219  0.64089  0.77259  1.0000
  C   C13       1.0  0.89425  0.14113  0.27271  1.0000
  C   C14       1.0  0.30780  0.35911  0.22740  1.0000
  C   C15       1.0  0.19787  0.68104  0.70175  1.0000
  C   C16       1.0  0.58087  0.81871  0.79823  1.0000
  C   C17       1.0  0.80215  0.31896  0.29826  1.0000
  C   C18       1.0  0.41913  0.18130  0.20177  1.0000
  C   C19       1.0  0.13944  0.62165  0.64883  1.0000
  C   C20       1.0  0.41009  0.87808  0.85123  1.0000
  C   C21       1.0  0.86062  0.37831  0.35117  1.0000
  C   C22       1.0  0.58991  0.12192  0.14877  1.0000
  C   C23       1.0  0.99041  0.74131  0.62367  1.0000
  C   C24       1.0  0.35559  0.75845  0.87635  1.0000
  C   C25       1.0  0.00966  0.25862  0.37632  1.0000
  C   C26       1.0  0.64442  0.24157  0.12365  1.0000
  C   C27       1.0  0.90571  0.91669  0.65251  1.0000
  C   C28       1.0  0.47515  0.58312  0.84742  1.0000
  C   C29       1.0  0.09433  0.08327  0.34748  1.0000
  C   C30       1.0  0.52485  0.41689  0.15258  1.0000
  C   C31       1.0  0.75822  0.34480  0.59564  1.0000
  C   C32       1.0  0.69812  0.15541  0.90417  1.0000
  C   C33       1.0  0.24177  0.65519  0.40435  1.0000
  C   C34       1.0  0.30187  0.84459  0.09583  1.0000
  C   C35       1.0  0.40550  0.67982  0.49983  1.0000
  C   C36       1.0  0.58555  0.82017  0.00019  1.0000
  C   C37       1.0  0.59450  0.32019  0.50016  1.0000
  C   C38       1.0  0.41445  0.17983  0.99981  1.0000
  C   C39       1.0  0.62732  0.42426  0.54477  1.0000
  C   C40       1.0  0.59607  0.07586  0.95513  1.0000
  C   C41       1.0  0.37269  0.57575  0.45523  1.0000
  C   C42       1.0  0.40393  0.92415  0.04487  1.0000
  C   C43       1.0  0.53276  0.60481  0.54351  1.0000
  C   C44       1.0  0.68122  0.89529  0.95643  1.0000
  C   C45       1.0  0.46725  0.39519  0.45649  1.0000
  C   C46       1.0  0.31878  0.10471  0.04357  1.0000
  N   N1        1.0  0.04560  0.24957  0.75008  1.0000
  N   N2        1.0  0.95437  0.75044  0.24993  1.0000
  N   N3        1.0  0.96244  0.97503  0.70299  1.0000
  N   N4        1.0  0.64079  0.52474  0.79689  1.0000
  N   N5        1.0  0.03756  0.02495  0.29701  1.0000
  N   N6        1.0  0.35921  0.47526  0.20311  1.0000
  Cl  Cl1       1.0  0.57027  0.73567  0.59828  1.0000
  Cl  Cl2       1.0  0.90456  0.76460  0.90161  1.0000
  Cl  Cl3       1.0  0.42973  0.26434  0.40171  1.0000
  Cl  Cl4       1.0  0.09544  0.23541  0.09838  1.0000
  Cl  Cl5       1.0  0.28043  0.90366  0.50382  1.0000
  Cl  Cl6       1.0  0.68868  0.59637  0.99622  1.0000
  Cl  Cl7       1.0  0.71956  0.09635  0.49617  1.0000
  Cl  Cl8       1.0  0.31132  0.40364  0.00378  1.0000
  O   O1        1.0  0.91738  0.31485  0.57124  1.0000
  O   O2        1.0  0.80265  0.18577  0.92855  1.0000
  O   O3        1.0  0.08261  0.68517  0.42876  1.0000
  O   O4        1.0  0.19733  0.81426  0.07145  1.0000
  O   O5        1.0  0.68211  0.31824  0.66229  1.0000
  O   O6        1.0  0.66225  0.18166  0.83751  1.0000
  O   O7        1.0  0.31789  0.68174  0.33770  1.0000
  O   O8        1.0  0.33776  0.81833  0.16249  1.0000
