data_image0
_chemical_formula_structural       Cd2H28C40N4O10
_chemical_formula_sum              "Cd2 H28 C40 N4 O10"
_cell_length_a       7.74031
_cell_length_b       10.4906
_cell_length_c       10.4906
_cell_angle_alpha    85.3528
_cell_angle_beta     88.3462
_cell_angle_gamma    88.346

_space_group_name_H-M_alt    "P 1"
_space_group_IT_number       1

loop_
  _space_group_symop_operation_xyz
  'x, y, z'

loop_
  _atom_site_type_symbol
  _atom_site_label
  _atom_site_symmetry_multiplicity
  _atom_site_fract_x
  _atom_site_fract_y
  _atom_site_fract_z
  _atom_site_occupancy
  Cd  Cd1       1.0  0.00000  0.00000  0.00000  1.0000
  Cd  Cd2       1.0  0.50000  0.00000  1.00000  1.0000
  H   H1        1.0  0.61998  0.32747  0.10076  1.0000
  H   H2        1.0  0.88003  0.89924  0.67253  1.0000
  H   H3        1.0  0.38002  0.67253  0.89924  1.0000
  H   H4        1.0  0.11997  0.10076  0.32747  1.0000
  H   H5        1.0  0.62059  0.56327  0.12924  1.0000
  H   H6        1.0  0.87941  0.87075  0.43673  1.0000
  H   H7        1.0  0.37941  0.43673  0.87076  1.0000
  H   H8        1.0  0.12059  0.12925  0.56327  1.0000
  H   H9        1.0  0.98758  0.72555  0.77289  1.0000
  H   H10       1.0  0.51242  0.22711  0.27445  1.0000
  H   H11       1.0  0.01242  0.27445  0.22711  1.0000
  H   H12       1.0  0.48758  0.77289  0.72555  1.0000
  H   H13       1.0  0.13265  0.62125  0.59329  1.0000
  H   H14       1.0  0.36735  0.40671  0.37875  1.0000
  H   H15       1.0  0.86734  0.37875  0.40671  1.0000
  H   H16       1.0  0.63265  0.59329  0.62125  1.0000
  H   H17       1.0  0.10733  0.38640  0.57743  1.0000
  H   H18       1.0  0.39268  0.42257  0.61360  1.0000
  H   H19       1.0  0.89267  0.61361  0.42257  1.0000
  H   H20       1.0  0.60732  0.57743  0.38640  1.0000
  H   H21       1.0  0.94240  0.25541  0.74388  1.0000
  H   H22       1.0  0.55760  0.25612  0.74459  1.0000
  H   H23       1.0  0.05760  0.74459  0.25612  1.0000
  H   H24       1.0  0.44240  0.74388  0.25541  1.0000
  H   H25       1.0  0.74607  0.08216  0.80928  1.0000
  H   H26       1.0  0.75393  0.19072  0.91784  1.0000
  H   H27       1.0  0.25393  0.91784  0.19072  1.0000
  H   H28       1.0  0.24607  0.80928  0.08216  1.0000
  C   C1        1.0  0.69111  0.39277  0.03366  1.0000
  C   C2        1.0  0.80890  0.96634  0.60723  1.0000
  C   C3        1.0  0.30889  0.60723  0.96634  1.0000
  C   C4        1.0  0.19110  0.03366  0.39277  1.0000
  C   C5        1.0  0.69208  0.52471  0.04948  1.0000
  C   C6        1.0  0.80792  0.95051  0.47529  1.0000
  C   C7        1.0  0.30792  0.47529  0.95052  1.0000
  C   C8        1.0  0.19208  0.04949  0.52471  1.0000
  C   C9        1.0  0.78001  0.60626  0.96178  1.0000
  C   C10       1.0  0.71999  0.03822  0.39374  1.0000
  C   C11       1.0  0.21999  0.39374  0.03822  1.0000
  C   C12       1.0  0.28001  0.96178  0.60626  1.0000
  C   C13       1.0  0.87235  0.55267  0.85773  1.0000
  C   C14       1.0  0.62765  0.14227  0.44733  1.0000
  C   C15       1.0  0.12765  0.44733  0.14227  1.0000
  C   C16       1.0  0.37235  0.85773  0.55267  1.0000
  C   C17       1.0  0.97281  0.62408  0.76299  1.0000
  C   C18       1.0  0.52719  0.23701  0.37592  1.0000
  C   C19       1.0  0.02719  0.37592  0.23701  1.0000
  C   C20       1.0  0.47282  0.76299  0.62408  1.0000
  C   C21       1.0  0.05472  0.56502  0.66426  1.0000
  C   C22       1.0  0.44529  0.33574  0.43497  1.0000
  C   C23       1.0  0.94528  0.43498  0.33575  1.0000
  C   C24       1.0  0.55472  0.66426  0.56503  1.0000
  C   C25       1.0  0.04170  0.43182  0.65573  1.0000
  C   C26       1.0  0.45830  0.34426  0.56818  1.0000
  C   C27       1.0  0.95830  0.56818  0.34427  1.0000
  C   C28       1.0  0.54170  0.65573  0.43182  1.0000
  C   C29       1.0  0.94836  0.35883  0.74684  1.0000
  C   C30       1.0  0.55164  0.25315  0.64117  1.0000
  C   C31       1.0  0.05164  0.64117  0.25316  1.0000
  C   C32       1.0  0.44836  0.74685  0.35883  1.0000
  C   C33       1.0  0.86131  0.41728  0.84859  1.0000
  C   C34       1.0  0.63869  0.15140  0.58272  1.0000
  C   C35       1.0  0.13869  0.58272  0.15141  1.0000
  C   C36       1.0  0.36131  0.84860  0.41728  1.0000
  C   C37       1.0  0.77162  0.74860  0.97830  1.0000
  C   C38       1.0  0.72837  0.02170  0.25140  1.0000
  C   C39       1.0  0.22838  0.25140  0.02170  1.0000
  C   C40       1.0  0.27163  0.97830  0.74860  1.0000
  N   N1        1.0  0.76935  0.34098  0.93603  1.0000
  N   N2        1.0  0.73065  0.06397  0.65902  1.0000
  N   N3        1.0  0.23065  0.65902  0.06397  1.0000
  N   N4        1.0  0.26934  0.93603  0.34098  1.0000
  O   O1        1.0  0.75000  0.09355  0.90645  1.0000
  O   O2        1.0  0.25000  0.90645  0.09355  1.0000
  O   O3        1.0  0.90842  0.80917  0.94768  1.0000
  O   O4        1.0  0.59158  0.05232  0.19083  1.0000
  O   O5        1.0  0.09158  0.19083  0.05232  1.0000
  O   O6        1.0  0.40842  0.94768  0.80917  1.0000
  O   O7        1.0  0.62912  0.79268  0.02065  1.0000
  O   O8        1.0  0.87088  0.97935  0.20732  1.0000
  O   O9        1.0  0.37087  0.20732  0.97935  1.0000
  O   O10       1.0  0.12913  0.02065  0.79268  1.0000
