data_image0
_chemical_formula_structural       Ag4H20C32N8O16
_chemical_formula_sum              "Ag4 H20 C32 N8 O16"
_cell_length_a       7.05784
_cell_length_b       10.5632
_cell_length_c       12.5325
_cell_angle_alpha    99.8241
_cell_angle_beta     102.9
_cell_angle_gamma    105.895

_space_group_name_H-M_alt    "P 1"
_space_group_IT_number       1

loop_
  _space_group_symop_operation_xyz
  'x, y, z'

loop_
  _atom_site_type_symbol
  _atom_site_label
  _atom_site_symmetry_multiplicity
  _atom_site_fract_x
  _atom_site_fract_y
  _atom_site_fract_z
  _atom_site_occupancy
  Ag  Ag1       1.0  0.38391  0.78514  0.07906  1.0000
  Ag  Ag2       1.0  0.61609  0.21485  0.92094  1.0000
  Ag  Ag3       1.0  0.51993  0.05641  0.67187  1.0000
  Ag  Ag4       1.0  0.48006  0.94359  0.32813  1.0000
  H   H1        1.0  0.80306  0.00403  0.09964  1.0000
  H   H2        1.0  0.19694  0.99597  0.90036  1.0000
  H   H3        1.0  0.16463  0.00652  0.10884  1.0000
  H   H4        1.0  0.83537  0.99348  0.89116  1.0000
  H   H5        1.0  0.97811  0.58700  0.07173  1.0000
  H   H6        1.0  0.02189  0.41300  0.92828  1.0000
  H   H7        1.0  0.62255  0.58647  0.06890  1.0000
  H   H8        1.0  0.37746  0.41353  0.93110  1.0000
  H   H9        1.0  0.28192  0.26508  0.66419  1.0000
  H   H10       1.0  0.71807  0.73492  0.33582  1.0000
  H   H11       1.0  0.92715  0.26667  0.66280  1.0000
  H   H12       1.0  0.07284  0.73333  0.33720  1.0000
  H   H13       1.0  0.73103  0.84615  0.61408  1.0000
  H   H14       1.0  0.26897  0.15385  0.38592  1.0000
  H   H15       1.0  0.08340  0.84380  0.61402  1.0000
  H   H16       1.0  0.91659  0.15621  0.38599  1.0000
  H   H17       1.0  0.19259  0.44446  0.54262  1.0000
  H   H18       1.0  0.80742  0.55554  0.45738  1.0000
  H   H19       1.0  0.37749  0.69932  0.46978  1.0000
  H   H20       1.0  0.62251  0.30068  0.53022  1.0000
  C   C1        1.0  0.84290  0.91090  0.09184  1.0000
  C   C2        1.0  0.15710  0.08910  0.90816  1.0000
  C   C3        1.0  0.04166  0.91193  0.09602  1.0000
  C   C4        1.0  0.95834  0.08807  0.90397  1.0000
  C   C5        1.0  0.94006  0.68036  0.07644  1.0000
  C   C6        1.0  0.05995  0.31964  0.92356  1.0000
  C   C7        1.0  0.74152  0.67951  0.07372  1.0000
  C   C8        1.0  0.25848  0.32049  0.92629  1.0000
  C   C9        1.0  0.29788  0.49174  0.21300  1.0000
  C   C10       1.0  0.70212  0.50827  0.78701  1.0000
  C   C11       1.0  0.21174  0.35166  0.23309  1.0000
  C   C12       1.0  0.78825  0.64835  0.76690  1.0000
  C   C13       1.0  0.23365  0.42141  0.35282  1.0000
  C   C14       1.0  0.76635  0.57859  0.64717  1.0000
  C   C15       1.0  0.31581  0.55111  0.33008  1.0000
  C   C16       1.0  0.68417  0.44888  0.66991  1.0000
  C   C17       1.0  0.28235  0.65254  0.80386  1.0000
  C   C18       1.0  0.71765  0.34745  0.19613  1.0000
  C   C19       1.0  0.38023  0.78940  0.78366  1.0000
  C   C20       1.0  0.61977  0.21060  0.21634  1.0000
  C   C21       1.0  0.34896  0.72057  0.66426  1.0000
  C   C22       1.0  0.65105  0.27942  0.33574  1.0000
  C   C23       1.0  0.25730  0.59092  0.68493  1.0000
  C   C24       1.0  0.74272  0.40908  0.31507  1.0000
  C   C25       1.0  0.15930  0.17153  0.65393  1.0000
  C   C26       1.0  0.84070  0.82847  0.34607  1.0000
  C   C27       1.0  0.96270  0.17231  0.65337  1.0000
  C   C28       1.0  0.03730  0.82769  0.34663  1.0000
  C   C29       1.0  0.85433  0.93995  0.62626  1.0000
  C   C30       1.0  0.14567  0.06005  0.37374  1.0000
  C   C31       1.0  0.05110  0.93923  0.62655  1.0000
  C   C32       1.0  0.94889  0.06077  0.37345  1.0000
  N   N1        1.0  0.69368  0.79482  0.08272  1.0000
  N   N2        1.0  0.30632  0.20518  0.91728  1.0000
  N   N3        1.0  0.09050  0.79660  0.08928  1.0000
  N   N4        1.0  0.90950  0.20340  0.91073  1.0000
  N   N5        1.0  0.20508  0.05502  0.64225  1.0000
  N   N6        1.0  0.79492  0.94498  0.35775  1.0000
  N   N7        1.0  0.81018  0.05668  0.64149  1.0000
  N   N8        1.0  0.18982  0.94332  0.35852  1.0000
  O   O1        1.0  0.23964  0.60990  0.88483  1.0000
  O   O2        1.0  0.76036  0.39008  0.11516  1.0000
  O   O3        1.0  0.45376  0.90933  0.83965  1.0000
  O   O4        1.0  0.54623  0.09066  0.16035  1.0000
  O   O5        1.0  0.38913  0.76750  0.58194  1.0000
  O   O6        1.0  0.61088  0.23250  0.41806  1.0000
  O   O7        1.0  0.17792  0.46490  0.62675  1.0000
  O   O8        1.0  0.82209  0.53509  0.37325  1.0000
  O   O9        1.0  0.33631  0.53791  0.13253  1.0000
  O   O10       1.0  0.66369  0.46210  0.86746  1.0000
  O   O11       1.0  0.15077  0.23271  0.17776  1.0000
  O   O12       1.0  0.84923  0.76729  0.82223  1.0000
  O   O13       1.0  0.19238  0.37686  0.43560  1.0000
  O   O14       1.0  0.80762  0.62313  0.56439  1.0000
  O   O15       1.0  0.38480  0.67941  0.38564  1.0000
  O   O16       1.0  0.61519  0.32060  0.61437  1.0000
