data_image0
_chemical_formula_structural       Cu4H20C24Br4N4O8
_chemical_formula_sum              "Cu4 H20 C24 Br4 N4 O8"
_cell_length_a       3.75231
_cell_length_b       14.0972
_cell_length_c       14.4107
_cell_angle_alpha    106.315
_cell_angle_beta     90
_cell_angle_gamma    89.9998

_space_group_name_H-M_alt    "P 1"
_space_group_IT_number       1

loop_
  _space_group_symop_operation_xyz
  'x, y, z'

loop_
  _atom_site_type_symbol
  _atom_site_label
  _atom_site_symmetry_multiplicity
  _atom_site_fract_x
  _atom_site_fract_y
  _atom_site_fract_z
  _atom_site_occupancy
  Cu  Cu1       1.0  0.19109  0.26628  0.07038  1.0000
  Cu  Cu2       1.0  0.69109  0.23373  0.92963  1.0000
  Cu  Cu3       1.0  0.80890  0.73373  0.92963  1.0000
  Cu  Cu4       1.0  0.30891  0.76627  0.07037  1.0000
  H   H1        1.0  0.14979  0.94507  0.44087  1.0000
  H   H2        1.0  0.64983  0.55492  0.55913  1.0000
  H   H3        1.0  0.85014  0.05492  0.55913  1.0000
  H   H4        1.0  0.35016  0.44508  0.44088  1.0000
  H   H5        1.0  0.90651  0.32796  0.26945  1.0000
  H   H6        1.0  0.40655  0.17204  0.73055  1.0000
  H   H7        1.0  0.09348  0.67204  0.73055  1.0000
  H   H8        1.0  0.59349  0.82795  0.26944  1.0000
  H   H9        1.0  0.85182  0.25355  0.40762  1.0000
  H   H10       1.0  0.35187  0.24645  0.59238  1.0000
  H   H11       1.0  0.14816  0.74645  0.59238  1.0000
  H   H12       1.0  0.64817  0.75355  0.40762  1.0000
  H   H13       1.0  0.37920  0.99368  0.22808  1.0000
  H   H14       1.0  0.87923  0.50632  0.77192  1.0000
  H   H15       1.0  0.62079  0.00633  0.77192  1.0000
  H   H16       1.0  0.12081  0.49368  0.22808  1.0000
  H   H17       1.0  0.41652  0.07815  0.09879  1.0000
  H   H18       1.0  0.91654  0.42185  0.90122  1.0000
  H   H19       1.0  0.58349  0.92186  0.90122  1.0000
  H   H20       1.0  0.08350  0.57815  0.09878  1.0000
  C   C1        1.0  0.01104  0.25450  0.26420  1.0000
  C   C2        1.0  0.51106  0.24549  0.73580  1.0000
  C   C3        1.0  0.98896  0.74550  0.73580  1.0000
  C   C4        1.0  0.48896  0.75450  0.26419  1.0000
  C   C5        1.0  0.98053  0.21302  0.34049  1.0000
  C   C6        1.0  0.48055  0.28697  0.65951  1.0000
  C   C7        1.0  0.01948  0.78697  0.65951  1.0000
  C   C8        1.0  0.51949  0.71303  0.34048  1.0000
  C   C9        1.0  0.27323  0.06800  0.24095  1.0000
  C   C10       1.0  0.77326  0.43199  0.75905  1.0000
  C   C11       1.0  0.72674  0.93200  0.75905  1.0000
  C   C12       1.0  0.22677  0.56801  0.24095  1.0000
  C   C13       1.0  0.29508  0.11486  0.16836  1.0000
  C   C14       1.0  0.79511  0.38514  0.83165  1.0000
  C   C15       1.0  0.70492  0.88515  0.83165  1.0000
  C   C16       1.0  0.20493  0.61485  0.16835  1.0000
  C   C17       1.0  0.11229  0.11732  0.32879  1.0000
  C   C18       1.0  0.61236  0.38267  0.67121  1.0000
  C   C19       1.0  0.88769  0.88268  0.67121  1.0000
  C   C20       1.0  0.38769  0.61732  0.32879  1.0000
  C   C21       1.0  0.06901  0.06832  0.40650  1.0000
  C   C22       1.0  0.56906  0.43167  0.59350  1.0000
  C   C23       1.0  0.93094  0.93168  0.59350  1.0000
  C   C24       1.0  0.43095  0.56833  0.40650  1.0000
  Br  Br1       1.0  0.18376  0.11748  0.92304  1.0000
  Br  Br2       1.0  0.68376  0.38252  0.07697  1.0000
  Br  Br3       1.0  0.81624  0.88252  0.07697  1.0000
  Br  Br4       1.0  0.31624  0.61748  0.92303  1.0000
  N   N1        1.0  0.16473  0.20656  0.17878  1.0000
  N   N2        1.0  0.66475  0.29344  0.82122  1.0000
  N   N3        1.0  0.83528  0.79345  0.82122  1.0000
  N   N4        1.0  0.33529  0.70655  0.17878  1.0000
  O   O1        1.0  0.91436  0.11019  0.48414  1.0000
  O   O2        1.0  0.41441  0.38980  0.51586  1.0000
  O   O3        1.0  0.08553  0.88980  0.51586  1.0000
  O   O4        1.0  0.58559  0.61021  0.48415  1.0000
  O   O5        1.0  0.20008  0.97788  0.38598  1.0000
  O   O6        1.0  0.70011  0.52213  0.61403  1.0000
  O   O7        1.0  0.79987  0.02213  0.61403  1.0000
  O   O8        1.0  0.29989  0.47787  0.38598  1.0000
