data_image0
_chemical_formula_structural       Cd4H24C34N36
_chemical_formula_sum              "Cd4 H24 C34 N36"
_cell_length_a       9.62045
_cell_length_b       11.0447
_cell_length_c       12.5077
_cell_angle_alpha    86.1386
_cell_angle_beta     80.9531
_cell_angle_gamma    79.4334

_space_group_name_H-M_alt    "P 1"
_space_group_IT_number       1

loop_
  _space_group_symop_operation_xyz
  'x, y, z'

loop_
  _atom_site_type_symbol
  _atom_site_label
  _atom_site_symmetry_multiplicity
  _atom_site_fract_x
  _atom_site_fract_y
  _atom_site_fract_z
  _atom_site_occupancy
  Cd  Cd1       1.0  0.17388  0.50911  0.01993  1.0000
  Cd  Cd2       1.0  0.82612  0.49089  0.98007  1.0000
  Cd  Cd3       1.0  0.31870  0.35091  0.28860  1.0000
  Cd  Cd4       1.0  0.68130  0.64909  0.71140  1.0000
  H   H1        1.0  0.05587  0.73075  0.84066  1.0000
  H   H2        1.0  0.94413  0.26925  0.15934  1.0000
  H   H3        1.0  0.07186  0.95035  0.78155  1.0000
  H   H4        1.0  0.92815  0.04965  0.21844  1.0000
  H   H5        1.0  0.18726  0.07374  0.89179  1.0000
  H   H6        1.0  0.81274  0.92626  0.10821  1.0000
  H   H7        1.0  0.28644  0.97395  0.05411  1.0000
  H   H8        1.0  0.71356  0.02605  0.94589  1.0000
  H   H9        1.0  0.63913  0.57551  0.29438  1.0000
  H   H10       1.0  0.36087  0.42449  0.70562  1.0000
  H   H11       1.0  0.75368  0.57589  0.46124  1.0000
  H   H12       1.0  0.24631  0.42411  0.53876  1.0000
  H   H13       1.0  0.36957  0.73098  0.64042  1.0000
  H   H14       1.0  0.63043  0.26902  0.35958  1.0000
  H   H15       1.0  0.24018  0.74446  0.48127  1.0000
  H   H16       1.0  0.75982  0.25553  0.51873  1.0000
  H   H17       1.0  0.11191  0.92906  0.31340  1.0000
  H   H18       1.0  0.88809  0.07094  0.68660  1.0000
  H   H19       1.0  0.13165  0.14471  0.35904  1.0000
  H   H20       1.0  0.86835  0.85529  0.64096  1.0000
  H   H21       1.0  0.55800  0.09654  0.22369  1.0000
  H   H22       1.0  0.44199  0.90346  0.77631  1.0000
  H   H23       1.0  0.55820  0.87828  0.17465  1.0000
  H   H24       1.0  0.44180  0.12172  0.82535  1.0000
  C   C1        1.0  0.10182  0.78871  0.88803  1.0000
  C   C2        1.0  0.89818  0.21129  0.11197  1.0000
  C   C3        1.0  0.11239  0.91059  0.85502  1.0000
  C   C4        1.0  0.88761  0.08941  0.14498  1.0000
  C   C5        1.0  0.17729  0.97852  0.91616  1.0000
  C   C6        1.0  0.82271  0.02148  0.08384  1.0000
  C   C7        1.0  0.23029  0.92302  0.00862  1.0000
  C   C8        1.0  0.76971  0.07698  0.99137  1.0000
  C   C9        1.0  0.21323  0.80158  0.03737  1.0000
  C   C10       1.0  0.78677  0.19842  0.96263  1.0000
  C   C11       1.0  0.26466  0.73116  0.13146  1.0000
  C   C12       1.0  0.73535  0.26884  0.86854  1.0000
  C   C13       1.0  0.35901  0.66473  0.27871  1.0000
  C   C14       1.0  0.64099  0.33527  0.72129  1.0000
  C   C15       1.0  0.43087  0.66270  0.37452  1.0000
  C   C16       1.0  0.56913  0.33730  0.62548  1.0000
  C   C17       1.0  0.57648  0.61304  0.36887  1.0000
  C   C18       1.0  0.42352  0.38696  0.63113  1.0000
  C   C19       1.0  0.64025  0.61231  0.46155  1.0000
  C   C20       1.0  0.35974  0.38769  0.53845  1.0000
  C   C21       1.0  0.42614  0.70224  0.56116  1.0000
  C   C22       1.0  0.57386  0.29775  0.43884  1.0000
  C   C23       1.0  0.35450  0.70897  0.47212  1.0000
  C   C24       1.0  0.64550  0.29103  0.52788  1.0000
  C   C25       1.0  0.33437  0.89060  0.24067  1.0000
  C   C26       1.0  0.66563  0.10941  0.75933  1.0000
  C   C27       1.0  0.21218  0.96385  0.29335  1.0000
  C   C28       1.0  0.78782  0.03615  0.70665  1.0000
  C   C29       1.0  0.22309  0.08203  0.31861  1.0000
  C   C30       1.0  0.77691  0.91797  0.68139  1.0000
  C   C31       1.0  0.46242  0.05472  0.24428  1.0000
  C   C32       1.0  0.53758  0.94528  0.75572  1.0000
  C   C33       1.0  0.46288  0.93404  0.21700  1.0000
  C   C34       1.0  0.53712  0.06596  0.78300  1.0000
  N   N1        1.0  0.14994  0.73590  0.97756  1.0000
  N   N2        1.0  0.85006  0.26410  0.02244  1.0000
  N   N3        1.0  0.26239  0.61180  0.14794  1.0000
  N   N4        1.0  0.73761  0.38820  0.85206  1.0000
  N   N5        1.0  0.31935  0.57057  0.23906  1.0000
  N   N6        1.0  0.68065  0.42943  0.76094  1.0000
  N   N7        1.0  0.32468  0.76850  0.21393  1.0000
  N   N8        1.0  0.67532  0.23150  0.78607  1.0000
  N   N9        1.0  0.56612  0.65539  0.55574  1.0000
  N   N10       1.0  0.43389  0.34461  0.44426  1.0000
  N   N11       1.0  0.34561  0.12681  0.29389  1.0000
  N   N12       1.0  0.65439  0.87319  0.70611  1.0000
  N   N13       1.0  0.94035  0.55664  0.10965  1.0000
  N   N14       1.0  0.05966  0.44336  0.89035  1.0000
  N   N15       1.0  0.90129  0.64912  0.16020  1.0000
  N   N16       1.0  0.09871  0.35088  0.83980  1.0000
  N   N17       1.0  0.86518  0.73749  0.21076  1.0000
  N   N18       1.0  0.13482  0.26251  0.78924  1.0000
  N   N19       1.0  0.23933  0.32636  0.11764  1.0000
  N   N20       1.0  0.76067  0.67364  0.88236  1.0000
  N   N21       1.0  0.31421  0.24497  0.06444  1.0000
  N   N22       1.0  0.68579  0.75503  0.93557  1.0000
  N   N23       1.0  0.38575  0.16446  0.01517  1.0000
  N   N24       1.0  0.61425  0.83554  0.98483  1.0000
  N   N25       1.0  0.10639  0.38000  0.39334  1.0000
  N   N26       1.0  0.89361  0.62001  0.60667  1.0000
  N   N27       1.0  0.99487  0.37333  0.36433  1.0000
  N   N28       1.0  0.00513  0.62667  0.63567  1.0000
  N   N29       1.0  0.88347  0.36627  0.34041  1.0000
  N   N30       1.0  0.11653  0.63373  0.65959  1.0000
  N   N31       1.0  0.45065  0.67403  0.81233  1.0000
  N   N32       1.0  0.54935  0.32597  0.18767  1.0000
  N   N33       1.0  0.41544  0.58322  0.85509  1.0000
  N   N34       1.0  0.58456  0.41678  0.14490  1.0000
  N   N35       1.0  0.38178  0.49118  0.89650  1.0000
  N   N36       1.0  0.61822  0.50882  0.10350  1.0000
