data_image0
_chemical_formula_structural       CdH24C38N18
_chemical_formula_sum              "Cd1 H24 C38 N18"
_cell_length_a       7.95963
_cell_length_b       9.42556
_cell_length_c       12.7904
_cell_angle_alpha    87.9239
_cell_angle_beta     85.0818
_cell_angle_gamma    70.9796

_space_group_name_H-M_alt    "P 1"
_space_group_IT_number       1

loop_
  _space_group_symop_operation_xyz
  'x, y, z'

loop_
  _atom_site_type_symbol
  _atom_site_label
  _atom_site_symmetry_multiplicity
  _atom_site_fract_x
  _atom_site_fract_y
  _atom_site_fract_z
  _atom_site_occupancy
  Cd  Cd1       1.0  1.00000  0.50000  0.50000  1.0000
  H   H1        1.0  0.19447  0.51030  0.96744  1.0000
  H   H2        1.0  0.80554  0.48969  0.03256  1.0000
  H   H3        1.0  0.33619  0.50462  0.13320  1.0000
  H   H4        1.0  0.66381  0.49539  0.86680  1.0000
  H   H5        1.0  0.42148  0.26475  0.23981  1.0000
  H   H6        1.0  0.57851  0.73525  0.76019  1.0000
  H   H7        1.0  0.37389  0.03643  0.16736  1.0000
  H   H8        1.0  0.62611  0.96357  0.83265  1.0000
  H   H9        1.0  0.93855  0.97402  0.73673  1.0000
  H   H10       1.0  0.06145  0.02598  0.26327  1.0000
  H   H11       1.0  0.88542  0.83087  0.59648  1.0000
  H   H12       1.0  0.11458  0.16913  0.40353  1.0000
  H   H13       1.0  0.28381  0.44237  0.67883  1.0000
  H   H14       1.0  0.71618  0.55763  0.32117  1.0000
  H   H15       1.0  0.35599  0.57205  0.82666  1.0000
  H   H16       1.0  0.64401  0.42795  0.17334  1.0000
  H   H17       1.0  0.38500  0.98207  0.70124  1.0000
  H   H18       1.0  0.61499  0.01793  0.29877  1.0000
  H   H19       1.0  0.70029  0.84769  0.45186  1.0000
  H   H20       1.0  0.29970  0.15232  0.54814  1.0000
  H   H21       1.0  0.16115  0.58214  0.28967  1.0000
  H   H22       1.0  0.83885  0.41786  0.71034  1.0000
  H   H23       1.0  0.90688  0.25911  0.87407  1.0000
  H   H24       1.0  0.09312  0.74089  0.12593  1.0000
  C   C1        1.0  0.23882  0.40596  0.01246  1.0000
  C   C2        1.0  0.76119  0.59404  0.98754  1.0000
  C   C3        1.0  0.31568  0.40330  0.10680  1.0000
  C   C4        1.0  0.68432  0.59670  0.89320  1.0000
  C   C5        1.0  0.36479  0.26967  0.16465  1.0000
  C   C6        1.0  0.63521  0.73033  0.83535  1.0000
  C   C7        1.0  0.33909  0.14344  0.12525  1.0000
  C   C8        1.0  0.66091  0.85656  0.87475  1.0000
  C   C9        1.0  0.26454  0.15648  0.02808  1.0000
  C   C10       1.0  0.73547  0.84352  0.97192  1.0000
  C   C11       1.0  0.24003  0.02339  0.98507  1.0000
  C   C12       1.0  0.75997  0.97661  0.01493  1.0000
  C   C13       1.0  0.19559  0.85872  0.88293  1.0000
  C   C14       1.0  0.80441  0.14128  0.11707  1.0000
  C   C15       1.0  0.15457  0.78465  0.79488  1.0000
  C   C16       1.0  0.84543  0.21534  0.20512  1.0000
  C   C17       1.0  0.02150  0.85719  0.72811  1.0000
  C   C18       1.0  0.97849  0.14281  0.27189  1.0000
  C   C19       1.0  0.98977  0.77548  0.64819  1.0000
  C   C20       1.0  0.01022  0.22452  0.35182  1.0000
  C   C21       1.0  0.21009  0.56009  0.69503  1.0000
  C   C22       1.0  0.78991  0.43990  0.30497  1.0000
  C   C23       1.0  0.25036  0.63233  0.77720  1.0000
  C   C24       1.0  0.74964  0.36766  0.22280  1.0000
  C   C25       1.0  0.15159  0.10972  0.79946  1.0000
  C   C26       1.0  0.84842  0.89029  0.20054  1.0000
  C   C27       1.0  0.26386  0.07838  0.70758  1.0000
  C   C28       1.0  0.73614  0.92162  0.29242  1.0000
  C   C29       1.0  0.21559  0.17338  0.62148  1.0000
  C   C30       1.0  0.78440  0.82662  0.37852  1.0000
  C   C31       1.0  0.04079  0.67912  0.28689  1.0000
  C   C32       1.0  0.95920  0.32087  0.71311  1.0000
  C   C33       1.0  0.99647  0.23337  0.80320  1.0000
  C   C34       1.0  0.00353  0.76663  0.19681  1.0000
  C   C35       1.0  0.56737  0.67090  0.55551  1.0000
  C   C36       1.0  0.43263  0.32911  0.44448  1.0000
  C   C37       1.0  0.35024  0.83473  0.46180  1.0000
  C   C38       1.0  0.64977  0.16527  0.53817  1.0000
  N   N1        1.0  0.21385  0.28543  0.97280  1.0000
  N   N2        1.0  0.78617  0.71457  0.02720  1.0000
  N   N3        1.0  0.27107  0.89381  0.03729  1.0000
  N   N4        1.0  0.72893  0.10618  0.96271  1.0000
  N   N5        1.0  0.24318  0.79164  0.97405  1.0000
  N   N6        1.0  0.75682  0.20836  0.02595  1.0000
  N   N7        1.0  0.19009  0.00683  0.88627  1.0000
  N   N8        1.0  0.80991  0.99317  0.11373  1.0000
  N   N9        1.0  0.08111  0.62981  0.63157  1.0000
  N   N10       1.0  0.91888  0.37019  0.36844  1.0000
  N   N11       1.0  0.06663  0.29282  0.62381  1.0000
  N   N12       1.0  0.93337  0.70717  0.37620  1.0000
  N   N13       1.0  0.70454  0.57800  0.57234  1.0000
  N   N14       1.0  0.29545  0.42201  0.42767  1.0000
  N   N15       1.0  0.41547  0.77361  0.54934  1.0000
  N   N16       1.0  0.58452  0.22640  0.45064  1.0000
  N   N17       1.0  0.28241  0.89915  0.38763  1.0000
  N   N18       1.0  0.71761  0.10083  0.61234  1.0000
