data_image0
_chemical_formula_structural       CdH16C16N4Cl2O2
_chemical_formula_sum              "Cd1 H16 C16 N4 Cl2 O2"
_cell_length_a       7.79688
_cell_length_b       7.86434
_cell_length_c       8.17149
_cell_angle_alpha    83.1154
_cell_angle_beta     76.5361
_cell_angle_gamma    62.2385

_space_group_name_H-M_alt    "P 1"
_space_group_IT_number       1

loop_
  _space_group_symop_operation_xyz
  'x, y, z'

loop_
  _atom_site_type_symbol
  _atom_site_label
  _atom_site_symmetry_multiplicity
  _atom_site_fract_x
  _atom_site_fract_y
  _atom_site_fract_z
  _atom_site_occupancy
  Cd  Cd1       1.0  1.00000  0.00000  1.00000  1.0000
  H   H1        1.0  0.45083  0.68839  0.90013  1.0000
  H   H2        1.0  0.54917  0.31161  0.09987  1.0000
  H   H3        1.0  0.78226  0.55786  0.98511  1.0000
  H   H4        1.0  0.21774  0.44214  0.01490  1.0000
  H   H5        1.0  0.48450  0.94233  0.40666  1.0000
  H   H6        1.0  0.51550  0.05767  0.59334  1.0000
  H   H7        1.0  0.16706  0.04778  0.30834  1.0000
  H   H8        1.0  0.83293  0.95223  0.69166  1.0000
  H   H9        1.0  0.05978  0.71900  0.51223  1.0000
  H   H10       1.0  0.94022  0.28100  0.48776  1.0000
  H   H11       1.0  0.17042  0.65237  0.29817  1.0000
  H   H12       1.0  0.82958  0.34763  0.70182  1.0000
  H   H13       1.0  0.65506  0.59380  0.49020  1.0000
  H   H14       1.0  0.34495  0.40620  0.50980  1.0000
  H   H15       1.0  0.73228  0.68911  0.63001  1.0000
  H   H16       1.0  0.26772  0.31088  0.36999  1.0000
  C   C1        1.0  0.46745  0.73784  0.01214  1.0000
  C   C2        1.0  0.53256  0.26216  0.98786  1.0000
  C   C3        1.0  0.64919  0.66886  0.05800  1.0000
  C   C4        1.0  0.35081  0.33114  0.94200  1.0000
  C   C5        1.0  0.65966  0.74344  0.20046  1.0000
  C   C6        1.0  0.34034  0.25656  0.79954  1.0000
  C   C7        1.0  0.48495  0.88084  0.29424  1.0000
  C   C8        1.0  0.51504  0.11916  0.70577  1.0000
  C   C9        1.0  0.30853  0.94210  0.23966  1.0000
  C   C10       1.0  0.69147  0.05790  0.76034  1.0000
  C   C11       1.0  0.86046  0.69200  0.23017  1.0000
  C   C12       1.0  0.13954  0.30801  0.76983  1.0000
  C   C13       1.0  0.09057  0.61735  0.41495  1.0000
  C   C14       1.0  0.90944  0.38265  0.58505  1.0000
  C   C15       1.0  0.78443  0.58725  0.52698  1.0000
  C   C16       1.0  0.21557  0.41275  0.47301  1.0000
  N   N1        1.0  0.30009  0.87425  0.10009  1.0000
  N   N2        1.0  0.69991  0.12576  0.89991  1.0000
  N   N3        1.0  0.90317  0.64066  0.38449  1.0000
  N   N4        1.0  0.09683  0.35934  0.61550  1.0000
  Cl  Cl1       1.0  0.79932  0.15151  0.29014  1.0000
  Cl  Cl2       1.0  0.20068  0.84849  0.70986  1.0000
  O   O1        1.0  0.98461  0.70379  0.10569  1.0000
  O   O2        1.0  0.01539  0.29621  0.89431  1.0000
