data_image0
_chemical_formula_structural       CdH16C16N6O8
_chemical_formula_sum              "Cd1 H16 C16 N6 O8"
_cell_length_a       7.3989
_cell_length_b       7.66061
_cell_length_c       8.98535
_cell_angle_alpha    81.1113
_cell_angle_beta     80.0247
_cell_angle_gamma    64.0922

_space_group_name_H-M_alt    "P 1"
_space_group_IT_number       1

loop_
  _space_group_symop_operation_xyz
  'x, y, z'

loop_
  _atom_site_type_symbol
  _atom_site_label
  _atom_site_symmetry_multiplicity
  _atom_site_fract_x
  _atom_site_fract_y
  _atom_site_fract_z
  _atom_site_occupancy
  Cd  Cd1       1.0  1.00000  1.00000  0.00000  1.0000
  H   H1        1.0  0.98614  0.80422  0.71278  1.0000
  H   H2        1.0  0.01386  0.19578  0.28722  1.0000
  H   H3        1.0  0.11222  0.47807  0.61616  1.0000
  H   H4        1.0  0.88778  0.52193  0.38384  1.0000
  H   H5        1.0  0.43341  0.23107  0.01102  1.0000
  H   H6        1.0  0.56659  0.76892  0.98898  1.0000
  H   H7        1.0  0.29442  0.56789  0.09118  1.0000
  H   H8        1.0  0.70559  0.43211  0.90882  1.0000
  H   H9        1.0  0.70301  0.09811  0.51103  1.0000
  H   H10       1.0  0.29699  0.90189  0.48897  1.0000
  H   H11       1.0  0.47971  0.31444  0.54988  1.0000
  H   H12       1.0  0.52029  0.68556  0.45013  1.0000
  H   H13       1.0  0.29875  0.22606  0.38712  1.0000
  H   H14       1.0  0.70125  0.77394  0.61289  1.0000
  H   H15       1.0  0.52788  0.22418  0.28241  1.0000
  H   H16       1.0  0.47212  0.77582  0.71760  1.0000
  C   C1        1.0  0.08376  0.67276  0.77609  1.0000
  C   C2        1.0  0.91623  0.32724  0.22391  1.0000
  C   C3        1.0  0.15566  0.48978  0.72265  1.0000
  C   C4        1.0  0.84434  0.51022  0.27735  1.0000
  C   C5        1.0  0.28134  0.32669  0.80861  1.0000
  C   C6        1.0  0.71866  0.67331  0.19140  1.0000
  C   C7        1.0  0.33254  0.35456  0.94311  1.0000
  C   C8        1.0  0.66745  0.64545  0.05689  1.0000
  C   C9        1.0  0.25590  0.54137  0.98775  1.0000
  C   C10       1.0  0.74410  0.45863  0.01225  1.0000
  C   C11       1.0  0.35264  0.11877  0.77729  1.0000
  C   C12       1.0  0.64736  0.88123  0.22272  1.0000
  C   C13       1.0  0.53678  0.16307  0.52477  1.0000
  C   C14       1.0  0.46322  0.83693  0.47523  1.0000
  C   C15       1.0  0.46471  0.15320  0.37810  1.0000
  C   C16       1.0  0.53529  0.84680  0.62190  1.0000
  N   N1        1.0  0.13105  0.69840  0.90672  1.0000
  N   N2        1.0  0.86895  0.30160  0.09328  1.0000
  N   N3        1.0  0.46935  0.05044  0.64940  1.0000
  N   N4        1.0  0.53064  0.94956  0.35060  1.0000
  N   N5        1.0  0.14153  0.75431  0.32475  1.0000
  N   N6        1.0  0.85847  0.24569  0.67525  1.0000
  O   O1        1.0  0.30668  0.00853  0.88123  1.0000
  O   O2        1.0  0.69332  0.99146  0.11877  1.0000
  O   O3        1.0  0.19119  0.85467  0.20845  1.0000
  O   O4        1.0  0.80880  0.14534  0.79155  1.0000
  O   O5        1.0  0.26528  0.58168  0.35517  1.0000
  O   O6        1.0  0.73473  0.41832  0.64482  1.0000
  O   O7        1.0  0.97378  0.83131  0.40396  1.0000
  O   O8        1.0  0.02622  0.16869  0.59604  1.0000
