data_image0
_chemical_formula_structural       Zn4P4H36C12N4O12
_chemical_formula_sum              "Zn4 P4 H36 C12 N4 O12"
_cell_length_a       7.62279
_cell_length_b       8.21655
_cell_length_c       11.9684
_cell_angle_alpha    90
_cell_angle_beta     94.6716
_cell_angle_gamma    90

_space_group_name_H-M_alt    "P 1"
_space_group_IT_number       1

loop_
  _space_group_symop_operation_xyz
  'x, y, z'

loop_
  _atom_site_type_symbol
  _atom_site_label
  _atom_site_symmetry_multiplicity
  _atom_site_fract_x
  _atom_site_fract_y
  _atom_site_fract_z
  _atom_site_occupancy
  Zn  Zn1       1.0  0.21361  0.02934  0.42104  1.0000
  Zn  Zn2       1.0  0.28638  0.52934  0.57896  1.0000
  Zn  Zn3       1.0  0.78638  0.97066  0.57896  1.0000
  Zn  Zn4       1.0  0.71361  0.47066  0.42104  1.0000
  P   P1        1.0  0.58878  0.10755  0.35671  1.0000
  P   P2        1.0  0.91122  0.60756  0.64328  1.0000
  P   P3        1.0  0.41122  0.89245  0.64329  1.0000
  P   P4        1.0  0.08878  0.39245  0.35672  1.0000
  H   H1        1.0  0.66596  0.14095  0.25583  1.0000
  H   H2        1.0  0.83404  0.64095  0.74417  1.0000
  H   H3        1.0  0.33404  0.85905  0.74417  1.0000
  H   H4        1.0  0.16596  0.35905  0.25583  1.0000
  H   H5        1.0  0.99448  0.70993  0.20992  1.0000
  H   H6        1.0  0.50552  0.20993  0.79008  1.0000
  H   H7        1.0  0.00552  0.29008  0.79008  1.0000
  H   H8        1.0  0.49448  0.79008  0.20992  1.0000
  H   H9        1.0  0.21057  0.79128  0.22568  1.0000
  H   H10       1.0  0.28943  0.29127  0.77432  1.0000
  H   H11       1.0  0.78943  0.20872  0.77432  1.0000
  H   H12       1.0  0.71057  0.70872  0.22568  1.0000
  H   H13       1.0  0.16885  0.89969  0.02510  1.0000
  H   H14       1.0  0.33115  0.39968  0.97490  1.0000
  H   H15       1.0  0.83115  0.10032  0.97490  1.0000
  H   H16       1.0  0.66885  0.60031  0.02510  1.0000
  H   H17       1.0  0.95339  0.81938  0.01247  1.0000
  H   H18       1.0  0.54661  0.31938  0.98754  1.0000
  H   H19       1.0  0.04661  0.18062  0.98754  1.0000
  H   H20       1.0  0.45339  0.68062  0.01246  1.0000
  H   H21       1.0  0.09409  0.07054  0.18794  1.0000
  H   H22       1.0  0.40591  0.57054  0.81206  1.0000
  H   H23       1.0  0.90591  0.92946  0.81206  1.0000
  H   H24       1.0  0.59409  0.42946  0.18794  1.0000
  H   H25       1.0  0.87631  0.99469  0.17497  1.0000
  H   H26       1.0  0.62369  0.49468  0.82503  1.0000
  H   H27       1.0  0.12369  0.00532  0.82503  1.0000
  H   H28       1.0  0.37631  0.50532  0.17497  1.0000
  H   H29       1.0  0.07930  0.74661  0.40033  1.0000
  H   H30       1.0  0.42070  0.24661  0.59967  1.0000
  H   H31       1.0  0.92070  0.25339  0.59967  1.0000
  H   H32       1.0  0.57930  0.75339  0.40033  1.0000
  H   H33       1.0  0.92656  0.88500  0.36807  1.0000
  H   H34       1.0  0.57344  0.38500  0.63193  1.0000
  H   H35       1.0  0.07344  0.11500  0.63193  1.0000
  H   H36       1.0  0.42656  0.61500  0.36807  1.0000
  C   C1        1.0  0.07169  0.81905  0.23545  1.0000
  C   C2        1.0  0.42831  0.31905  0.76455  1.0000
  C   C3        1.0  0.92831  0.18095  0.76455  1.0000
  C   C4        1.0  0.57170  0.68095  0.23545  1.0000
  C   C5        1.0  0.01392  0.96340  0.16196  1.0000
  C   C6        1.0  0.48607  0.46340  0.83804  1.0000
  C   C7        1.0  0.98608  0.03660  0.83804  1.0000
  C   C8        1.0  0.51393  0.53660  0.16196  1.0000
  C   C9        1.0  0.03049  0.92896  0.03794  1.0000
  C   C10       1.0  0.46951  0.42896  0.96206  1.0000
  C   C11       1.0  0.96951  0.07104  0.96206  1.0000
  C   C12       1.0  0.53049  0.57104  0.03794  1.0000
  N   N1        1.0  0.05426  0.85219  0.35575  1.0000
  N   N2        1.0  0.44574  0.35219  0.64425  1.0000
  N   N3        1.0  0.94574  0.14781  0.64425  1.0000
  N   N4        1.0  0.55426  0.64781  0.35575  1.0000
  O   O1        1.0  0.40519  0.03951  0.32096  1.0000
  O   O2        1.0  0.09481  0.53951  0.67904  1.0000
  O   O3        1.0  0.59481  0.96049  0.67904  1.0000
  O   O4        1.0  0.90519  0.46049  0.32096  1.0000
  O   O5        1.0  0.58162  0.26517  0.42424  1.0000
  O   O6        1.0  0.91838  0.76517  0.57576  1.0000
  O   O7        1.0  0.41838  0.73483  0.57576  1.0000
  O   O8        1.0  0.08162  0.23483  0.42424  1.0000
  O   O9        1.0  0.70799  0.97658  0.41746  1.0000
  O   O10       1.0  0.79201  0.47658  0.58254  1.0000
  O   O11       1.0  0.29201  0.02342  0.58254  1.0000
  O   O12       1.0  0.20799  0.52342  0.41746  1.0000
