data_image0
_chemical_formula_structural       Cd2H28C28N4Cl4
_chemical_formula_sum              "Cd2 H28 C28 N4 Cl4"
_cell_length_a       7.35419
_cell_length_b       9.60594
_cell_length_c       10.3139
_cell_angle_alpha    91.158
_cell_angle_beta     102.421
_cell_angle_gamma    94.6151

_space_group_name_H-M_alt    "P 1"
_space_group_IT_number       1

loop_
  _space_group_symop_operation_xyz
  'x, y, z'

loop_
  _atom_site_type_symbol
  _atom_site_label
  _atom_site_symmetry_multiplicity
  _atom_site_fract_x
  _atom_site_fract_y
  _atom_site_fract_z
  _atom_site_occupancy
  Cd  Cd1       1.0  0.26312  0.07563  0.02706  1.0000
  Cd  Cd2       1.0  0.73688  0.92437  0.97294  1.0000
  H   H1        1.0  0.29033  0.63741  0.04350  1.0000
  H   H2        1.0  0.70966  0.36259  0.95650  1.0000
  H   H3        1.0  0.10605  0.66732  0.81761  1.0000
  H   H4        1.0  0.89394  0.33267  0.18239  1.0000
  H   H5        1.0  0.97751  0.45186  0.66983  1.0000
  H   H6        1.0  0.02248  0.54814  0.33017  1.0000
  H   H7        1.0  0.03326  0.21611  0.76471  1.0000
  H   H8        1.0  0.96675  0.78388  0.23529  1.0000
  H   H9        1.0  0.53974  0.48088  0.34074  1.0000
  H   H10       1.0  0.46026  0.51911  0.65926  1.0000
  H   H11       1.0  0.33906  0.57011  0.27300  1.0000
  H   H12       1.0  0.66094  0.42989  0.72700  1.0000
  H   H13       1.0  0.53141  0.58417  0.19785  1.0000
  H   H14       1.0  0.46859  0.41583  0.80215  1.0000
  H   H15       1.0  0.46525  0.19544  0.64330  1.0000
  H   H16       1.0  0.53475  0.80455  0.35670  1.0000
  H   H17       1.0  0.76291  0.09205  0.65563  1.0000
  H   H18       1.0  0.23709  0.90795  0.34437  1.0000
  H   H19       1.0  0.89011  0.06859  0.44842  1.0000
  H   H20       1.0  0.10989  0.93141  0.55158  1.0000
  H   H21       1.0  0.70739  0.14286  0.23484  1.0000
  H   H22       1.0  0.29262  0.85714  0.76516  1.0000
  H   H23       1.0  0.18953  0.27489  0.52449  1.0000
  H   H24       1.0  0.81047  0.72511  0.47550  1.0000
  H   H25       1.0  0.12968  0.25753  0.34823  1.0000
  H   H26       1.0  0.87032  0.74246  0.65177  1.0000
  H   H27       1.0  0.25122  0.41444  0.42826  1.0000
  H   H28       1.0  0.74878  0.58556  0.57174  1.0000
  C   C1        1.0  0.25974  0.40997  0.02442  1.0000
  C   C2        1.0  0.74026  0.59003  0.97558  1.0000
  C   C3        1.0  0.23217  0.54520  0.98032  1.0000
  C   C4        1.0  0.76783  0.45480  0.01968  1.0000
  C   C5        1.0  0.12905  0.56226  0.85212  1.0000
  C   C6        1.0  0.87095  0.43774  0.14788  1.0000
  C   C7        1.0  0.05700  0.44405  0.77117  1.0000
  C   C8        1.0  0.94300  0.55595  0.22883  1.0000
  C   C9        1.0  0.08827  0.31258  0.82247  1.0000
  C   C10       1.0  0.91173  0.68742  0.17753  1.0000
  C   C11       1.0  0.37001  0.38583  0.16037  1.0000
  C   C12       1.0  0.63000  0.61418  0.83963  1.0000
  C   C13       1.0  0.45000  0.51120  0.24853  1.0000
  C   C14       1.0  0.55000  0.48881  0.75147  1.0000
  C   C15       1.0  0.49244  0.22293  0.32026  1.0000
  C   C16       1.0  0.50756  0.77707  0.67974  1.0000
  C   C17       1.0  0.42069  0.23920  0.43565  1.0000
  C   C18       1.0  0.57932  0.76080  0.56434  1.0000
  C   C19       1.0  0.52244  0.19058  0.55435  1.0000
  C   C20       1.0  0.47756  0.80943  0.44565  1.0000
  C   C21       1.0  0.69111  0.13151  0.56163  1.0000
  C   C22       1.0  0.30889  0.86850  0.43838  1.0000
  C   C23       1.0  0.76027  0.11677  0.44658  1.0000
  C   C24       1.0  0.23973  0.88323  0.55342  1.0000
  C   C25       1.0  0.65904  0.15954  0.32610  1.0000
  C   C26       1.0  0.34096  0.84046  0.67389  1.0000
  C   C27       1.0  0.23803  0.29977  0.43354  1.0000
  C   C28       1.0  0.76197  0.70023  0.56646  1.0000
  N   N1        1.0  0.18645  0.29663  0.94545  1.0000
  N   N2        1.0  0.81355  0.70337  0.05455  1.0000
  N   N3        1.0  0.39419  0.25865  0.19319  1.0000
  N   N4        1.0  0.60582  0.74135  0.80681  1.0000
  Cl  Cl1       1.0  0.99363  0.04756  0.16580  1.0000
  Cl  Cl2       1.0  0.00638  0.95245  0.83420  1.0000
  Cl  Cl3       1.0  0.45177  0.87129  0.10706  1.0000
  Cl  Cl4       1.0  0.54823  0.12871  0.89294  1.0000
