data_image0
_chemical_formula_structural       Cd2H14C14N2Cl4O2
_chemical_formula_sum              "Cd2 H14 C14 N2 Cl4 O2"
_cell_length_a       7.25004
_cell_length_b       8.08156
_cell_length_c       9.35487
_cell_angle_alpha    109.321
_cell_angle_beta     94.9793
_cell_angle_gamma    113.162

_space_group_name_H-M_alt    "P 1"
_space_group_IT_number       1

loop_
  _space_group_symop_operation_xyz
  'x, y, z'

loop_
  _atom_site_type_symbol
  _atom_site_label
  _atom_site_symmetry_multiplicity
  _atom_site_fract_x
  _atom_site_fract_y
  _atom_site_fract_z
  _atom_site_occupancy
  Cd  Cd1       1.0  0.26709  0.01663  0.07679  1.0000
  Cd  Cd2       1.0  0.73291  0.98337  0.92321  1.0000
  H   H1        1.0  0.26981  0.01009  0.65227  1.0000
  H   H2        1.0  0.73018  0.98991  0.34773  1.0000
  H   H3        1.0  0.98754  0.67390  0.57119  1.0000
  H   H4        1.0  0.01246  0.32610  0.42881  1.0000
  H   H5        1.0  0.80682  0.47206  0.28283  1.0000
  H   H6        1.0  0.19319  0.52794  0.71718  1.0000
  H   H7        1.0  0.91453  0.62601  0.09268  1.0000
  H   H8        1.0  0.08547  0.37399  0.90732  1.0000
  H   H9        1.0  0.64567  0.46460  0.62816  1.0000
  H   H10       1.0  0.35434  0.53540  0.37183  1.0000
  H   H11       1.0  0.58394  0.26186  0.68441  1.0000
  H   H12       1.0  0.41606  0.73814  0.31559  1.0000
  H   H13       1.0  0.40835  0.35917  0.67949  1.0000
  H   H14       1.0  0.59166  0.64083  0.32051  1.0000
  C   C1        1.0  0.24465  0.99347  0.41424  1.0000
  C   C2        1.0  0.75534  0.00653  0.58575  1.0000
  C   C3        1.0  0.18955  0.92155  0.52893  1.0000
  C   C4        1.0  0.81045  0.07846  0.47107  1.0000
  C   C5        1.0  0.03118  0.73136  0.48252  1.0000
  C   C6        1.0  0.96882  0.26864  0.51748  1.0000
  C   C7        1.0  0.93123  0.62090  0.32463  1.0000
  C   C8        1.0  0.06877  0.37910  0.67538  1.0000
  C   C9        1.0  0.99171  0.70535  0.21729  1.0000
  C   C10       1.0  0.00828  0.29465  0.78272  1.0000
  C   C11       1.0  0.42072  0.19123  0.45261  1.0000
  C   C12       1.0  0.57928  0.80877  0.54741  1.0000
  C   C13       1.0  0.52158  0.32731  0.61947  1.0000
  C   C14       1.0  0.47843  0.67269  0.38053  1.0000
  N   N1        1.0  0.14533  0.88592  0.26132  1.0000
  N   N2        1.0  0.85467  0.11408  0.73868  1.0000
  Cl  Cl1       1.0  0.05956  0.23576  0.14311  1.0000
  Cl  Cl2       1.0  0.94045  0.76425  0.85688  1.0000
  Cl  Cl3       1.0  0.53022  0.21111  0.96013  1.0000
  Cl  Cl4       1.0  0.46979  0.78889  0.03987  1.0000
  O   O1        1.0  0.48085  0.23920  0.34563  1.0000
  O   O2        1.0  0.51916  0.76079  0.65436  1.0000
