data_image0
_chemical_formula_structural       Cu2H22C18I2N12
_chemical_formula_sum              "Cu2 H22 C18 I2 N12"
_cell_length_a       6.10552
_cell_length_b       7.73437
_cell_length_c       14.0566
_cell_angle_alpha    89.9999
_cell_angle_beta     90
_cell_angle_gamma    90.0002

_space_group_name_H-M_alt    "P 1"
_space_group_IT_number       1

loop_
  _space_group_symop_operation_xyz
  'x, y, z'

loop_
  _atom_site_type_symbol
  _atom_site_label
  _atom_site_symmetry_multiplicity
  _atom_site_fract_x
  _atom_site_fract_y
  _atom_site_fract_z
  _atom_site_occupancy
  Cu  Cu1       1.0  0.19720  0.61979  0.50000  1.0000
  Cu  Cu2       1.0  0.80280  0.11979  0.00000  1.0000
  H   H1        1.0  0.01950  0.74884  0.85060  1.0000
  H   H2        1.0  0.98051  0.24885  0.64939  1.0000
  H   H3        1.0  0.98051  0.24885  0.35061  1.0000
  H   H4        1.0  0.01949  0.74884  0.14939  1.0000
  H   H5        1.0  0.50592  0.51908  0.67741  1.0000
  H   H6        1.0  0.49407  0.01909  0.82259  1.0000
  H   H7        1.0  0.49407  0.01909  0.17741  1.0000
  H   H8        1.0  0.50592  0.51908  0.32259  1.0000
  H   H9        1.0  0.39612  0.60474  0.86359  1.0000
  H   H10       1.0  0.60388  0.10475  0.63640  1.0000
  H   H11       1.0  0.60388  0.10475  0.36360  1.0000
  H   H12       1.0  0.39611  0.60474  0.13640  1.0000
  H   H13       1.0  0.89785  0.77971  0.67692  1.0000
  H   H14       1.0  0.10215  0.27972  0.82308  1.0000
  H   H15       1.0  0.10215  0.27972  0.17692  1.0000
  H   H16       1.0  0.89785  0.77971  0.32308  1.0000
  H   H17       1.0  0.46604  0.94182  0.50000  1.0000
  H   H18       1.0  0.53397  0.44182  1.00000  1.0000
  H   H19       1.0  0.70097  0.42904  0.50000  1.0000
  H   H20       1.0  0.29903  0.92903  0.00000  1.0000
  H   H21       1.0  0.92301  0.94640  0.50000  1.0000
  H   H22       1.0  0.07700  0.44639  1.00000  1.0000
  C   C1        1.0  0.36378  0.58632  0.70486  1.0000
  C   C2        1.0  0.63622  0.08633  0.79514  1.0000
  C   C3        1.0  0.63622  0.08632  0.20486  1.0000
  C   C4        1.0  0.36377  0.58632  0.29514  1.0000
  C   C5        1.0  0.31091  0.62721  0.79717  1.0000
  C   C6        1.0  0.68909  0.12721  0.70283  1.0000
  C   C7        1.0  0.68909  0.12721  0.29717  1.0000
  C   C8        1.0  0.31091  0.62721  0.20283  1.0000
  C   C9        1.0  0.04864  0.71969  0.70066  1.0000
  C   C10       1.0  0.95136  0.21970  0.79934  1.0000
  C   C11       1.0  0.95136  0.21970  0.20066  1.0000
  C   C12       1.0  0.04863  0.71969  0.29934  1.0000
  C   C13       1.0  0.58313  0.83595  0.50000  1.0000
  C   C14       1.0  0.41687  0.33595  1.00000  1.0000
  C   C15       1.0  0.69967  0.56936  0.50000  1.0000
  C   C16       1.0  0.30033  0.06935  1.00000  1.0000
  C   C17       1.0  0.80909  0.83827  0.50000  1.0000
  C   C18       1.0  0.19091  0.33826  1.00000  1.0000
  I   I1        1.0  0.21230  0.24464  0.50000  1.0000
  I   I2        1.0  0.78769  0.74464  1.00000  1.0000
  N   N1        1.0  0.19908  0.64467  0.64541  1.0000
  N   N2        1.0  0.80092  0.14468  0.85459  1.0000
  N   N3        1.0  0.80092  0.14468  0.14541  1.0000
  N   N4        1.0  0.19907  0.64467  0.35459  1.0000
  N   N5        1.0  0.11253  0.71198  0.79272  1.0000
  N   N6        1.0  0.88747  0.21198  0.70728  1.0000
  N   N7        1.0  0.88747  0.21198  0.29272  1.0000
  N   N8        1.0  0.11252  0.71198  0.20728  1.0000
  N   N9        1.0  0.51613  0.66625  0.50000  1.0000
  N   N10       1.0  0.48387  0.16625  1.00000  1.0000
  N   N11       1.0  0.88060  0.66918  0.50000  1.0000
  N   N12       1.0  0.11940  0.16917  1.00000  1.0000
