data_image0
_chemical_formula_structural       Mn2H24C32N12O8
_chemical_formula_sum              "Mn2 H24 C32 N12 O8"
_cell_length_a       6.64867
_cell_length_b       10.0522
_cell_length_c       12.5711
_cell_angle_alpha    113.504
_cell_angle_beta     99.0204
_cell_angle_gamma    89.9896

_space_group_name_H-M_alt    "P 1"
_space_group_IT_number       1

loop_
  _space_group_symop_operation_xyz
  'x, y, z'

loop_
  _atom_site_type_symbol
  _atom_site_label
  _atom_site_symmetry_multiplicity
  _atom_site_fract_x
  _atom_site_fract_y
  _atom_site_fract_z
  _atom_site_occupancy
  Mn  Mn1       1.0  0.75010  0.07068  0.00004  1.0000
  Mn  Mn2       1.0  0.24991  0.92932  0.99997  1.0000
  H   H1        1.0  0.01344  0.95901  0.58504  1.0000
  H   H2        1.0  0.48687  0.37391  0.41474  1.0000
  H   H3        1.0  0.98657  0.04098  0.41495  1.0000
  H   H4        1.0  0.51313  0.62610  0.58526  1.0000
  H   H5        1.0  0.60422  0.20938  0.56069  1.0000
  H   H6        1.0  0.89553  0.64815  0.43857  1.0000
  H   H7        1.0  0.39579  0.79062  0.43932  1.0000
  H   H8        1.0  0.10446  0.35185  0.56143  1.0000
  H   H9        1.0  0.93304  0.30015  0.70217  1.0000
  H   H10       1.0  0.56682  0.59755  0.29686  1.0000
  H   H11       1.0  0.06695  0.69986  0.29783  1.0000
  H   H12       1.0  0.43317  0.40244  0.70313  1.0000
  H   H13       1.0  0.09641  0.20688  0.94715  1.0000
  H   H14       1.0  0.40409  0.25920  0.05238  1.0000
  H   H15       1.0  0.90360  0.79312  0.05286  1.0000
  H   H16       1.0  0.59592  0.74080  0.94762  1.0000
  H   H17       1.0  0.99491  0.37924  0.99321  1.0000
  H   H18       1.0  0.50520  0.38536  0.00596  1.0000
  H   H19       1.0  0.00508  0.62076  0.00679  1.0000
  H   H20       1.0  0.49481  0.61463  0.99403  1.0000
  H   H21       1.0  0.14643  0.32730  0.87968  1.0000
  H   H22       1.0  0.35348  0.44688  0.11937  1.0000
  H   H23       1.0  0.85357  0.67271  0.12033  1.0000
  H   H24       1.0  0.64653  0.55311  0.88063  1.0000
  C   C1        1.0  0.52530  0.10016  0.77595  1.0000
  C   C2        1.0  0.97492  0.32398  0.22379  1.0000
  C   C3        1.0  0.47470  0.89985  0.22405  1.0000
  C   C4        1.0  0.02508  0.67601  0.77621  1.0000
  C   C5        1.0  0.48132  0.12194  0.67147  1.0000
  C   C6        1.0  0.01868  0.45011  0.32816  1.0000
  C   C7        1.0  0.51867  0.87806  0.32853  1.0000
  C   C8        1.0  0.98131  0.54989  0.67183  1.0000
  C   C9        1.0  0.63146  0.19326  0.64242  1.0000
  C   C10       1.0  0.86836  0.55035  0.35693  1.0000
  C   C11       1.0  0.36854  0.80675  0.35758  1.0000
  C   C12       1.0  0.13163  0.44965  0.64307  1.0000
  C   C13       1.0  0.81228  0.24443  0.72103  1.0000
  C   C14       1.0  0.68759  0.52296  0.27824  1.0000
  C   C15       1.0  0.18772  0.75557  0.27898  1.0000
  C   C16       1.0  0.31240  0.47703  0.72176  1.0000
  C   C17       1.0  0.84308  0.22464  0.82700  1.0000
  C   C18       1.0  0.65702  0.39727  0.17241  1.0000
  C   C19       1.0  0.15692  0.77537  0.17300  1.0000
  C   C20       1.0  0.34298  0.60272  0.82759  1.0000
  C   C21       1.0  0.03185  0.28782  0.91603  1.0000
  C   C22       1.0  0.46833  0.37122  0.08328  1.0000
  C   C23       1.0  0.96815  0.71218  0.08398  1.0000
  C   C24       1.0  0.53168  0.62877  0.91672  1.0000
  C   C25       1.0  0.37281  0.02332  0.80585  1.0000
  C   C26       1.0  0.12759  0.21739  0.19404  1.0000
  C   C27       1.0  0.62719  0.97668  0.19415  1.0000
  C   C28       1.0  0.87242  0.78261  0.80596  1.0000
  C   C29       1.0  0.27977  0.07333  0.59872  1.0000
  C   C30       1.0  0.22024  0.47422  0.40100  1.0000
  C   C31       1.0  0.72022  0.92667  0.40127  1.0000
  C   C32       1.0  0.77976  0.52578  0.59900  1.0000
  N   N1        1.0  0.70308  0.15120  0.85280  1.0000
  N   N2        1.0  0.79718  0.29816  0.14685  1.0000
  N   N3        1.0  0.29691  0.84880  0.14720  1.0000
  N   N4        1.0  0.20282  0.70184  0.85315  1.0000
  N   N5        1.0  0.19568  0.97233  0.73591  1.0000
  N   N6        1.0  0.30475  0.23638  0.26398  1.0000
  N   N7        1.0  0.80432  0.02767  0.26408  1.0000
  N   N8        1.0  0.69525  0.76362  0.73602  1.0000
  N   N9        1.0  0.15782  0.99778  0.63598  1.0000
  N   N10       1.0  0.34246  0.36164  0.36380  1.0000
  N   N11       1.0  0.84218  0.00222  0.36402  1.0000
  N   N12       1.0  0.65754  0.63836  0.63620  1.0000
  O   O1        1.0  0.41703  0.01018  0.90638  1.0000
  O   O2        1.0  0.08337  0.10376  0.09364  1.0000
  O   O3        1.0  0.58297  0.98982  0.09361  1.0000
  O   O4        1.0  0.91664  0.89624  0.90636  1.0000
  O   O5        1.0  0.22102  0.10026  0.50929  1.0000
  O   O6        1.0  0.27878  0.59042  0.49042  1.0000
  O   O7        1.0  0.77899  0.89973  0.49072  1.0000
  O   O8        1.0  0.72122  0.40958  0.50957  1.0000
