data_image0
_chemical_formula_structural       Mg4H24C24S4O24
_chemical_formula_sum              "Mg4 H24 C24 S4 O24"
_cell_length_a       6.70463
_cell_length_b       7.24903
_cell_length_c       17.7379
_cell_angle_alpha    90.0008
_cell_angle_beta     90.0007
_cell_angle_gamma    89.9995

_space_group_name_H-M_alt    "P 1"
_space_group_IT_number       1

loop_
  _space_group_symop_operation_xyz
  'x, y, z'

loop_
  _atom_site_type_symbol
  _atom_site_label
  _atom_site_symmetry_multiplicity
  _atom_site_fract_x
  _atom_site_fract_y
  _atom_site_fract_z
  _atom_site_occupancy
  Mg  Mg1       1.0  1.00000  0.50000  1.00000  1.0000
  Mg  Mg2       1.0  0.50000  1.00000  0.00000  1.0000
  Mg  Mg3       1.0  0.50000  0.00000  0.50000  1.0000
  Mg  Mg4       1.0  1.00000  0.50000  0.50000  1.0000
  H   H1        1.0  0.63710  0.40501  0.94008  1.0000
  H   H2        1.0  0.13710  0.09498  0.05991  1.0000
  H   H3        1.0  0.86289  0.90502  0.55991  1.0000
  H   H4        1.0  0.36289  0.59498  0.44008  1.0000
  H   H5        1.0  0.36289  0.59498  0.05992  1.0000
  H   H6        1.0  0.86289  0.90501  0.94008  1.0000
  H   H7        1.0  0.13710  0.09499  0.44009  1.0000
  H   H8        1.0  0.63711  0.40501  0.55992  1.0000
  H   H9        1.0  0.65008  0.60632  0.97304  1.0000
  H   H10       1.0  0.15008  0.89367  0.02696  1.0000
  H   H11       1.0  0.84991  0.10632  0.52695  1.0000
  H   H12       1.0  0.34992  0.39367  0.47304  1.0000
  H   H13       1.0  0.34992  0.39367  0.02695  1.0000
  H   H14       1.0  0.84992  0.10632  0.97304  1.0000
  H   H15       1.0  0.15008  0.89367  0.47305  1.0000
  H   H16       1.0  0.65008  0.60632  0.52696  1.0000
  H   H17       1.0  0.16866  0.32151  0.17499  1.0000
  H   H18       1.0  0.66863  0.17847  0.82501  1.0000
  H   H19       1.0  0.33137  0.82150  0.32502  1.0000
  H   H20       1.0  0.83136  0.67849  0.67498  1.0000
  H   H21       1.0  0.83135  0.67849  0.82502  1.0000
  H   H22       1.0  0.33138  0.82152  0.17499  1.0000
  H   H23       1.0  0.66865  0.17850  0.67498  1.0000
  H   H24       1.0  0.16864  0.32152  0.32502  1.0000
  C   C1        1.0  0.79716  0.20891  0.10198  1.0000
  C   C2        1.0  0.29715  0.29107  0.89801  1.0000
  C   C3        1.0  0.70288  0.70889  0.39802  1.0000
  C   C4        1.0  0.20286  0.79109  0.60199  1.0000
  C   C5        1.0  0.20283  0.79110  0.89802  1.0000
  C   C6        1.0  0.70285  0.70892  0.10199  1.0000
  C   C7        1.0  0.29715  0.29111  0.60198  1.0000
  C   C8        1.0  0.79713  0.20892  0.39801  1.0000
  C   C9        1.0  0.04169  0.28511  0.21032  1.0000
  C   C10       1.0  0.54168  0.21488  0.78968  1.0000
  C   C11       1.0  0.45833  0.78511  0.28969  1.0000
  C   C12       1.0  0.95831  0.71490  0.71032  1.0000
  C   C13       1.0  0.95830  0.71490  0.78968  1.0000
  C   C14       1.0  0.45833  0.78511  0.21032  1.0000
  C   C15       1.0  0.54169  0.21490  0.71031  1.0000
  C   C16       1.0  0.04168  0.28511  0.28969  1.0000
  C   C17       1.0  0.85632  0.23645  0.18088  1.0000
  C   C18       1.0  0.35630  0.26356  0.81911  1.0000
  C   C19       1.0  0.64370  0.73643  0.31912  1.0000
  C   C20       1.0  0.14369  0.76356  0.68089  1.0000
  C   C21       1.0  0.14368  0.76356  0.81912  1.0000
  C   C22       1.0  0.64371  0.73644  0.18089  1.0000
  C   C23       1.0  0.35632  0.26357  0.68088  1.0000
  C   C24       1.0  0.85630  0.23645  0.31911  1.0000
  S   S1        1.0  0.68379  0.19244  0.24999  1.0000
  S   S2        1.0  0.18379  0.30758  0.74999  1.0000
  S   S3        1.0  0.81622  0.69243  0.25001  1.0000
  S   S4        1.0  0.31620  0.80758  0.75000  1.0000
  O   O1        1.0  0.92690  0.24479  0.04955  1.0000
  O   O2        1.0  0.42687  0.25520  0.95044  1.0000
  O   O3        1.0  0.57312  0.74479  0.45046  1.0000
  O   O4        1.0  0.07312  0.75522  0.54955  1.0000
  O   O5        1.0  0.07310  0.75520  0.95045  1.0000
  O   O6        1.0  0.57313  0.74479  0.04956  1.0000
  O   O7        1.0  0.42688  0.25521  0.54954  1.0000
  O   O8        1.0  0.92687  0.24479  0.45045  1.0000
  O   O9        1.0  0.62519  0.14529  0.08869  1.0000
  O   O10       1.0  0.12513  0.35471  0.91131  1.0000
  O   O11       1.0  0.87483  0.64528  0.41131  1.0000
  O   O12       1.0  0.37483  0.85471  0.58869  1.0000
  O   O13       1.0  0.37481  0.85471  0.91132  1.0000
  O   O14       1.0  0.87486  0.64527  0.08869  1.0000
  O   O15       1.0  0.12518  0.35472  0.58869  1.0000
  O   O16       1.0  0.62515  0.14530  0.41131  1.0000
  O   O17       1.0  0.72697  0.51278  0.94397  1.0000
  O   O18       1.0  0.22697  0.98721  0.05603  1.0000
  O   O19       1.0  0.77302  0.01279  0.55603  1.0000
  O   O20       1.0  0.27303  0.48721  0.44397  1.0000
  O   O21       1.0  0.27302  0.48721  0.05603  1.0000
  O   O22       1.0  0.77303  0.01279  0.94397  1.0000
  O   O23       1.0  0.22697  0.98721  0.44397  1.0000
  O   O24       1.0  0.72697  0.51279  0.55603  1.0000
