data_image0
_chemical_formula_structural       Zn2H24C28N4O8
_chemical_formula_sum              "Zn2 H24 C28 N4 O8"
_cell_length_a       9.28617
_cell_length_b       9.28606
_cell_length_c       11.0196
_cell_angle_alpha    91.2887
_cell_angle_beta     91.2891
_cell_angle_gamma    100.482

_space_group_name_H-M_alt    "P 1"
_space_group_IT_number       1

loop_
  _space_group_symop_operation_xyz
  'x, y, z'

loop_
  _atom_site_type_symbol
  _atom_site_label
  _atom_site_symmetry_multiplicity
  _atom_site_fract_x
  _atom_site_fract_y
  _atom_site_fract_z
  _atom_site_occupancy
  Zn  Zn1       1.0  0.85035  0.14964  0.24999  1.0000
  Zn  Zn2       1.0  0.14965  0.85035  0.75000  1.0000
  H   H1        1.0  0.45859  0.32478  0.98810  1.0000
  H   H2        1.0  0.32477  0.45857  0.48815  1.0000
  H   H3        1.0  0.54142  0.67522  0.01189  1.0000
  H   H4        1.0  0.67522  0.54143  0.51187  1.0000
  H   H5        1.0  0.15679  0.02675  0.99593  1.0000
  H   H6        1.0  0.02673  0.15679  0.49594  1.0000
  H   H7        1.0  0.84321  0.97326  0.00406  1.0000
  H   H8        1.0  0.97327  0.84322  0.50406  1.0000
  H   H9        1.0  0.20094  0.21384  0.96823  1.0000
  H   H10       1.0  0.21382  0.20094  0.46824  1.0000
  H   H11       1.0  0.79906  0.78616  0.03177  1.0000
  H   H12       1.0  0.78618  0.79906  0.53176  1.0000
  H   H13       1.0  0.30106  0.93833  0.19005  1.0000
  H   H14       1.0  0.93830  0.30107  0.69005  1.0000
  H   H15       1.0  0.69894  0.06168  0.80994  1.0000
  H   H16       1.0  0.06171  0.69892  0.30996  1.0000
  H   H17       1.0  0.71075  0.31653  0.07063  1.0000
  H   H18       1.0  0.31654  0.71074  0.57068  1.0000
  H   H19       1.0  0.28924  0.68347  0.92936  1.0000
  H   H20       1.0  0.68345  0.28925  0.42934  1.0000
  H   H21       1.0  0.56056  0.94321  0.26184  1.0000
  H   H22       1.0  0.94319  0.56056  0.76183  1.0000
  H   H23       1.0  0.43943  0.05680  0.73816  1.0000
  H   H24       1.0  0.05682  0.43942  0.23818  1.0000
  C   C1        1.0  0.35807  0.13212  0.08301  1.0000
  C   C2        1.0  0.13210  0.35806  0.58303  1.0000
  C   C3        1.0  0.64193  0.86788  0.91699  1.0000
  C   C4        1.0  0.86790  0.64193  0.41699  1.0000
  C   C5        1.0  0.47626  0.23872  0.04941  1.0000
  C   C6        1.0  0.23871  0.47625  0.54945  1.0000
  C   C7        1.0  0.52374  0.76128  0.95058  1.0000
  C   C8        1.0  0.76129  0.52375  0.45056  1.0000
  C   C9        1.0  0.20515  0.13359  0.03921  1.0000
  C   C10       1.0  0.13356  0.20514  0.53921  1.0000
  C   C11       1.0  0.79485  0.86642  0.96079  1.0000
  C   C12       1.0  0.86644  0.79485  0.46078  1.0000
  C   C13       1.0  0.10152  0.15773  0.14024  1.0000
  C   C14       1.0  0.15770  0.10151  0.64024  1.0000
  C   C15       1.0  0.89848  0.84228  0.85976  1.0000
  C   C16       1.0  0.84230  0.89848  0.35975  1.0000
  C   C17       1.0  0.38912  0.02344  0.16076  1.0000
  C   C18       1.0  0.02341  0.38911  0.66078  1.0000
  C   C19       1.0  0.61088  0.97657  0.83923  1.0000
  C   C20       1.0  0.97659  0.61088  0.33923  1.0000
  C   C21       1.0  0.61625  0.23516  0.09492  1.0000
  C   C22       1.0  0.23516  0.61623  0.59496  1.0000
  C   C23       1.0  0.38375  0.76484  0.90507  1.0000
  C   C24       1.0  0.76483  0.38376  0.40506  1.0000
  C   C25       1.0  0.53175  0.02623  0.20206  1.0000
  C   C26       1.0  0.02621  0.53175  0.70207  1.0000
  C   C27       1.0  0.46825  0.97378  0.79793  1.0000
  C   C28       1.0  0.97380  0.46824  0.29794  1.0000
  N   N1        1.0  0.64376  0.13150  0.17098  1.0000
  N   N2        1.0  0.13149  0.64376  0.67101  1.0000
  N   N3        1.0  0.35623  0.86850  0.82902  1.0000
  N   N4        1.0  0.86851  0.35624  0.32901  1.0000
  O   O1        1.0  0.13943  0.16165  0.24991  1.0000
  O   O2        1.0  0.16157  0.13938  0.74991  1.0000
  O   O3        1.0  0.86060  0.83840  0.75009  1.0000
  O   O4        1.0  0.83843  0.86061  0.25009  1.0000
  O   O5        1.0  0.97058  0.16965  0.10233  1.0000
  O   O6        1.0  0.16966  0.97057  0.60233  1.0000
  O   O7        1.0  0.02942  0.83034  0.89767  1.0000
  O   O8        1.0  0.83034  0.02942  0.39766  1.0000
