data_image0
_chemical_formula_structural       Cd2H32C24S8N12
_chemical_formula_sum              "Cd2 H32 C24 S8 N12"
_cell_length_a       8.77434
_cell_length_b       8.77433
_cell_length_c       12.5396
_cell_angle_alpha    101.397
_cell_angle_beta     101.397
_cell_angle_gamma    105.776

_space_group_name_H-M_alt    "P 1"
_space_group_IT_number       1

loop_
  _space_group_symop_operation_xyz
  'x, y, z'

loop_
  _atom_site_type_symbol
  _atom_site_label
  _atom_site_symmetry_multiplicity
  _atom_site_fract_x
  _atom_site_fract_y
  _atom_site_fract_z
  _atom_site_occupancy
  Cd  Cd1       1.0  0.98309  0.01691  0.75001  1.0000
  Cd  Cd2       1.0  0.01692  0.98308  0.25000  1.0000
  H   H1        1.0  0.48379  0.68561  0.00316  1.0000
  H   H2        1.0  0.31440  0.51621  0.49684  1.0000
  H   H3        1.0  0.51621  0.31440  0.99684  1.0000
  H   H4        1.0  0.68560  0.48379  0.50316  1.0000
  H   H5        1.0  0.35810  0.89145  0.89484  1.0000
  H   H6        1.0  0.10856  0.64190  0.60516  1.0000
  H   H7        1.0  0.64190  0.10856  0.10516  1.0000
  H   H8        1.0  0.89144  0.35810  0.39484  1.0000
  H   H9        1.0  0.81416  0.60078  0.87022  1.0000
  H   H10       1.0  0.39921  0.18584  0.62978  1.0000
  H   H11       1.0  0.18585  0.39922  0.12978  1.0000
  H   H12       1.0  0.60078  0.81416  0.37022  1.0000
  H   H13       1.0  0.73852  0.59078  0.99196  1.0000
  H   H14       1.0  0.40922  0.26147  0.50804  1.0000
  H   H15       1.0  0.26148  0.40922  0.00804  1.0000
  H   H16       1.0  0.59078  0.73852  0.49196  1.0000
  H   H17       1.0  0.62631  0.44453  0.85823  1.0000
  H   H18       1.0  0.55547  0.37369  0.64177  1.0000
  H   H19       1.0  0.37369  0.55547  0.14177  1.0000
  H   H20       1.0  0.44453  0.62631  0.35823  1.0000
  H   H21       1.0  0.36836  0.96218  0.71421  1.0000
  H   H22       1.0  0.03782  0.63164  0.78580  1.0000
  H   H23       1.0  0.63164  0.03781  0.28580  1.0000
  H   H24       1.0  0.96218  0.36836  0.21420  1.0000
  H   H25       1.0  0.58424  0.06218  0.73985  1.0000
  H   H26       1.0  0.93782  0.41576  0.76015  1.0000
  H   H27       1.0  0.41576  0.93782  0.26015  1.0000
  H   H28       1.0  0.06218  0.58424  0.23985  1.0000
  H   H29       1.0  0.48226  0.87796  0.62824  1.0000
  H   H30       1.0  0.12204  0.51773  0.87176  1.0000
  H   H31       1.0  0.51773  0.12204  0.37176  1.0000
  H   H32       1.0  0.87796  0.48226  0.12824  1.0000
  C   C1        1.0  0.62395  0.75737  0.78859  1.0000
  C   C2        1.0  0.24263  0.37605  0.71141  1.0000
  C   C3        1.0  0.37605  0.24263  0.21141  1.0000
  C   C4        1.0  0.75736  0.62395  0.28859  1.0000
  C   C5        1.0  0.50650  0.72829  0.93074  1.0000
  C   C6        1.0  0.27170  0.49350  0.56926  1.0000
  C   C7        1.0  0.49350  0.27172  0.06926  1.0000
  C   C8        1.0  0.72830  0.50650  0.43073  1.0000
  C   C9        1.0  0.44644  0.83045  0.87861  1.0000
  C   C10       1.0  0.16955  0.55356  0.62139  1.0000
  C   C11       1.0  0.55357  0.16955  0.12139  1.0000
  C   C12       1.0  0.83045  0.44644  0.37861  1.0000
  C   C13       1.0  0.70377  0.57223  0.90034  1.0000
  C   C14       1.0  0.42777  0.29623  0.59966  1.0000
  C   C15       1.0  0.29623  0.42777  0.09967  1.0000
  C   C16       1.0  0.57223  0.70377  0.40033  1.0000
  C   C17       1.0  0.48627  0.94303  0.71330  1.0000
  C   C18       1.0  0.05697  0.51373  0.78670  1.0000
  C   C19       1.0  0.51373  0.05697  0.28670  1.0000
  C   C20       1.0  0.94303  0.48627  0.21330  1.0000
  C   C21       1.0  0.12194  0.88585  0.98495  1.0000
  C   C22       1.0  0.11414  0.87808  0.51506  1.0000
  C   C23       1.0  0.87808  0.11414  0.01506  1.0000
  C   C24       1.0  0.88586  0.12191  0.48494  1.0000
  S   S1        1.0  0.73818  0.73613  0.69534  1.0000
  S   S2        1.0  0.26387  0.26182  0.80466  1.0000
  S   S3        1.0  0.26182  0.26387  0.30466  1.0000
  S   S4        1.0  0.73613  0.73818  0.19534  1.0000
  S   S5        1.0  0.13491  0.79893  0.08844  1.0000
  S   S6        1.0  0.20106  0.86510  0.41157  1.0000
  S   S7        1.0  0.86509  0.20107  0.91157  1.0000
  S   S8        1.0  0.79894  0.13490  0.58843  1.0000
  N   N1        1.0  0.61544  0.68427  0.87488  1.0000
  N   N2        1.0  0.31573  0.38455  0.62511  1.0000
  N   N3        1.0  0.38456  0.31574  0.12512  1.0000
  N   N4        1.0  0.68426  0.61544  0.37488  1.0000
  N   N5        1.0  0.51809  0.84605  0.79102  1.0000
  N   N6        1.0  0.15395  0.48190  0.70898  1.0000
  N   N7        1.0  0.48191  0.15395  0.20898  1.0000
  N   N8        1.0  0.84605  0.51810  0.29102  1.0000
  N   N9        1.0  0.11556  0.94245  0.90635  1.0000
  N   N10       1.0  0.05755  0.88444  0.59365  1.0000
  N   N11       1.0  0.88445  0.05755  0.09365  1.0000
  N   N12       1.0  0.94245  0.11554  0.40634  1.0000
