data_image0
_chemical_formula_structural       Cu2H16C24N4O8
_chemical_formula_sum              "Cu2 H16 C24 N4 O8"
_cell_length_a       7.79148
_cell_length_b       7.83349
_cell_length_c       10.1486
_cell_angle_alpha    89.1836
_cell_angle_beta     88.3581
_cell_angle_gamma    60.1761

_space_group_name_H-M_alt    "P 1"
_space_group_IT_number       1

loop_
  _space_group_symop_operation_xyz
  'x, y, z'

loop_
  _atom_site_type_symbol
  _atom_site_label
  _atom_site_symmetry_multiplicity
  _atom_site_fract_x
  _atom_site_fract_y
  _atom_site_fract_z
  _atom_site_occupancy
  Cu  Cu1       1.0  0.56634  0.86735  0.25001  1.0000
  Cu  Cu2       1.0  0.43365  0.13265  0.74999  1.0000
  H   H1        1.0  0.39398  0.52626  0.07223  1.0000
  H   H2        1.0  0.07977  0.52626  0.42777  1.0000
  H   H3        1.0  0.60601  0.47376  0.92775  1.0000
  H   H4        1.0  0.92021  0.47376  0.57223  1.0000
  H   H5        1.0  0.14666  0.70668  0.25000  1.0000
  H   H6        1.0  0.85334  0.29331  0.74999  1.0000
  H   H7        1.0  0.57922  0.57192  0.42810  1.0000
  H   H8        1.0  0.84884  0.57192  0.07189  1.0000
  H   H9        1.0  0.42078  0.42808  0.57190  1.0000
  H   H10       1.0  0.15115  0.42809  0.92811  1.0000
  H   H11       1.0  0.75848  0.20102  0.43665  1.0000
  H   H12       1.0  0.04050  0.20102  0.06335  1.0000
  H   H13       1.0  0.24152  0.79898  0.56335  1.0000
  H   H14       1.0  0.95950  0.79899  0.93665  1.0000
  H   H15       1.0  0.99301  0.01400  0.25000  1.0000
  H   H16       1.0  0.00699  0.98601  0.75000  1.0000
  C   C1        1.0  0.62050  0.09929  0.05484  1.0000
  C   C2        1.0  0.28022  0.09928  0.44517  1.0000
  C   C3        1.0  0.37953  0.90067  0.94516  1.0000
  C   C4        1.0  0.71978  0.90067  0.55483  1.0000
  C   C5        1.0  0.46482  0.23996  0.15203  1.0000
  C   C6        1.0  0.29522  0.23996  0.34797  1.0000
  C   C7        1.0  0.53520  0.76000  0.84797  1.0000
  C   C8        1.0  0.70479  0.76001  0.65202  1.0000
  C   C9        1.0  0.36500  0.44487  0.14902  1.0000
  C   C10       1.0  0.19013  0.44487  0.35098  1.0000
  C   C11       1.0  0.63498  0.55513  0.85099  1.0000
  C   C12       1.0  0.80988  0.55513  0.64900  1.0000
  C   C13       1.0  0.22672  0.54656  0.25000  1.0000
  C   C14       1.0  0.77326  0.45346  0.75000  1.0000
  C   C15       1.0  0.68360  0.48202  0.35062  1.0000
  C   C16       1.0  0.83437  0.48201  0.14937  1.0000
  C   C17       1.0  0.31640  0.51798  0.64937  1.0000
  C   C18       1.0  0.16563  0.51799  0.85063  1.0000
  C   C19       1.0  0.78370  0.27764  0.35442  1.0000
  C   C20       1.0  0.93866  0.27764  0.14557  1.0000
  C   C21       1.0  0.21630  0.72237  0.64557  1.0000
  C   C22       1.0  0.06134  0.72237  0.85443  1.0000
  C   C23       1.0  0.91296  0.17408  0.25000  1.0000
  C   C24       1.0  0.08705  0.82591  0.75000  1.0000
  N   N1        1.0  0.70870  0.58258  0.25000  1.0000
  N   N2        1.0  0.29130  0.41742  0.75000  1.0000
  N   N3        1.0  0.42661  0.14678  0.25000  1.0000
  N   N4        1.0  0.57338  0.85324  0.75000  1.0000
  O   O1        1.0  0.69970  0.91464  0.08804  1.0000
  O   O2        1.0  0.38567  0.91465  0.41197  1.0000
  O   O3        1.0  0.30028  0.08538  0.91197  1.0000
  O   O4        1.0  0.61431  0.08538  0.58802  1.0000
  O   O5        1.0  0.66327  0.16115  0.95256  1.0000
  O   O6        1.0  0.17559  0.16115  0.54745  1.0000
  O   O7        1.0  0.33672  0.83885  0.04745  1.0000
  O   O8        1.0  0.82440  0.83885  0.45253  1.0000
