data_image0
_chemical_formula_structural       Zn2H26C48N8O8
_chemical_formula_sum              "Zn2 H26 C48 N8 O8"
_cell_length_a       9.40212
_cell_length_b       10.2636
_cell_length_c       11.1084
_cell_angle_alpha    88.872
_cell_angle_beta     72.2731
_cell_angle_gamma    85.0046

_space_group_name_H-M_alt    "P 1"
_space_group_IT_number       1

loop_
  _space_group_symop_operation_xyz
  'x, y, z'

loop_
  _atom_site_type_symbol
  _atom_site_label
  _atom_site_symmetry_multiplicity
  _atom_site_fract_x
  _atom_site_fract_y
  _atom_site_fract_z
  _atom_site_occupancy
  Zn  Zn1       1.0  0.39819  0.37933  0.53508  1.0000
  Zn  Zn2       1.0  0.60181  0.62067  0.46492  1.0000
  H   H1        1.0  0.70538  0.23563  0.54377  1.0000
  H   H2        1.0  0.29462  0.76437  0.45623  1.0000
  H   H3        1.0  0.86855  0.03755  0.43320  1.0000
  H   H4        1.0  0.13145  0.96245  0.56680  1.0000
  H   H5        1.0  0.77721  0.90272  0.29083  1.0000
  H   H6        1.0  0.22279  0.09729  0.70916  1.0000
  H   H7        1.0  0.09428  0.12699  0.21291  1.0000
  H   H8        1.0  0.90573  0.87301  0.78708  1.0000
  H   H9        1.0  0.95519  0.31984  0.35213  1.0000
  H   H10       1.0  0.04481  0.68016  0.64787  1.0000
  H   H11       1.0  0.07539  0.41428  0.49922  1.0000
  H   H12       1.0  0.92461  0.58572  0.50078  1.0000
  H   H13       1.0  0.68835  0.65207  0.03577  1.0000
  H   H14       1.0  0.31165  0.34793  0.96423  1.0000
  H   H15       1.0  0.74402  0.48654  0.86657  1.0000
  H   H16       1.0  0.25597  0.51345  0.13344  1.0000
  H   H17       1.0  0.35768  0.63949  0.76441  1.0000
  H   H18       1.0  0.64232  0.36050  0.23559  1.0000
  H   H19       1.0  0.29434  0.80425  0.94084  1.0000
  H   H20       1.0  0.70567  0.19575  0.05916  1.0000
  H   H21       1.0  0.90318  0.33083  0.16032  1.0000
  H   H22       1.0  0.09682  0.66917  0.83968  1.0000
  H   H23       1.0  0.06332  0.26464  0.94229  1.0000
  H   H24       1.0  0.93666  0.73536  0.05771  1.0000
  H   H25       1.0  0.64278  0.79071  0.17155  1.0000
  H   H26       1.0  0.35722  0.20930  0.82845  1.0000
  C   C1        1.0  0.67202  0.17485  0.47874  1.0000
  C   C2        1.0  0.32798  0.82515  0.52127  1.0000
  C   C3        1.0  0.76112  0.06423  0.41713  1.0000
  C   C4        1.0  0.23888  0.93577  0.58287  1.0000
  C   C5        1.0  0.71134  0.99040  0.33752  1.0000
  C   C6        1.0  0.28867  0.00960  0.66247  1.0000
  C   C7        1.0  0.57098  0.02768  0.31968  1.0000
  C   C8        1.0  0.42902  0.97232  0.68032  1.0000
  C   C9        1.0  0.50622  0.96526  0.23836  1.0000
  C   C10       1.0  0.49378  0.03474  0.76164  1.0000
  C   C11       1.0  0.37090  0.01140  0.21634  1.0000
  C   C12       1.0  0.62910  0.98860  0.78366  1.0000
  C   C13       1.0  0.28224  0.12140  0.28663  1.0000
  C   C14       1.0  0.71776  0.87860  0.71337  1.0000
  C   C15       1.0  0.14076  0.17195  0.27919  1.0000
  C   C16       1.0  0.85924  0.82805  0.72081  1.0000
  C   C17       1.0  0.06406  0.27665  0.35542  1.0000
  C   C18       1.0  0.93595  0.72335  0.64457  1.0000
  C   C19       1.0  0.13053  0.33171  0.43748  1.0000
  C   C20       1.0  0.86948  0.66829  0.56252  1.0000
  C   C21       1.0  0.34131  0.18389  0.37216  1.0000
  C   C22       1.0  0.65870  0.81611  0.62784  1.0000
  C   C23       1.0  0.48673  0.14011  0.38590  1.0000
  C   C24       1.0  0.51328  0.85989  0.61410  1.0000
  C   C25       1.0  0.45967  0.84344  0.09501  1.0000
  C   C26       1.0  0.54034  0.15656  0.90500  1.0000
  C   C27       1.0  0.48771  0.74154  0.99919  1.0000
  C   C28       1.0  0.51229  0.25846  0.00081  1.0000
  C   C29       1.0  0.61434  0.65089  0.97734  1.0000
  C   C30       1.0  0.38565  0.34911  0.02267  1.0000
  C   C31       1.0  0.64707  0.55766  0.88197  1.0000
  C   C32       1.0  0.35293  0.44234  0.11803  1.0000
  C   C33       1.0  0.55571  0.55408  0.80354  1.0000
  C   C34       1.0  0.44429  0.44592  0.19647  1.0000
  C   C35       1.0  0.42819  0.64323  0.82575  1.0000
  C   C36       1.0  0.57181  0.35677  0.17425  1.0000
  C   C37       1.0  0.39315  0.73489  0.92329  1.0000
  C   C38       1.0  0.60685  0.26511  0.07671  1.0000
  C   C39       1.0  0.59529  0.45476  0.69905  1.0000
  C   C40       1.0  0.40471  0.54524  0.30095  1.0000
  C   C41       1.0  0.94692  0.40420  0.08972  1.0000
  C   C42       1.0  0.05307  0.59580  0.91028  1.0000
  C   C43       1.0  0.03517  0.36762  0.96840  1.0000
  C   C44       1.0  0.96482  0.63238  0.03160  1.0000
  C   C45       1.0  0.08924  0.46312  0.87790  1.0000
  C   C46       1.0  0.91076  0.53688  0.12210  1.0000
  C   C47       1.0  0.19210  0.42388  0.75041  1.0000
  C   C48       1.0  0.80790  0.57612  0.24959  1.0000
  N   N1        1.0  0.53885  0.21043  0.46299  1.0000
  N   N2        1.0  0.46115  0.78957  0.53701  1.0000
  N   N3        1.0  0.26516  0.28721  0.44423  1.0000
  N   N4        1.0  0.73484  0.71278  0.55577  1.0000
  N   N5        1.0  0.55971  0.85879  0.16109  1.0000
  N   N6        1.0  0.44029  0.14121  0.83891  1.0000
  N   N7        1.0  0.34443  0.93569  0.12619  1.0000
  N   N8        1.0  0.65557  0.06431  0.87381  1.0000
  O   O1        1.0  0.67964  0.35558  0.70130  1.0000
  O   O2        1.0  0.32037  0.64442  0.29870  1.0000
  O   O3        1.0  0.53448  0.48162  0.60740  1.0000
  O   O4        1.0  0.46552  0.51838  0.39260  1.0000
  O   O5        1.0  0.26880  0.31267  0.73803  1.0000
  O   O6        1.0  0.73120  0.68733  0.26198  1.0000
  O   O7        1.0  0.20662  0.50196  0.65781  1.0000
  O   O8        1.0  0.79338  0.49805  0.34219  1.0000
