data_image0
_chemical_formula_structural       Ni2H28C40N4O10
_chemical_formula_sum              "Ni2 H28 C40 N4 O10"
_cell_length_a       7.95171
_cell_length_b       10.4768
_cell_length_c       11.1841
_cell_angle_alpha    112.388
_cell_angle_beta     92.8551
_cell_angle_gamma    89.2868

_space_group_name_H-M_alt    "P 1"
_space_group_IT_number       1

loop_
  _space_group_symop_operation_xyz
  'x, y, z'

loop_
  _atom_site_type_symbol
  _atom_site_label
  _atom_site_symmetry_multiplicity
  _atom_site_fract_x
  _atom_site_fract_y
  _atom_site_fract_z
  _atom_site_occupancy
  Ni  Ni1       1.0  0.24990  0.77309  0.99555  1.0000
  Ni  Ni2       1.0  0.75014  0.22690  0.00450  1.0000
  H   H1        1.0  0.14417  0.46917  0.88421  1.0000
  H   H2        1.0  0.85582  0.53085  0.11579  1.0000
  H   H3        1.0  0.19618  0.28138  0.96553  1.0000
  H   H4        1.0  0.80382  0.71861  0.03445  1.0000
  H   H5        1.0  0.38602  0.32685  0.16674  1.0000
  H   H6        1.0  0.61399  0.67314  0.83325  1.0000
  H   H7        1.0  0.65944  0.75051  0.46485  1.0000
  H   H8        1.0  0.34056  0.24949  0.53516  1.0000
  H   H9        1.0  0.54944  0.51091  0.35998  1.0000
  H   H10       1.0  0.45055  0.48909  0.64003  1.0000
  H   H11       1.0  0.68291  0.99653  0.45848  1.0000
  H   H12       1.0  0.31710  0.00348  0.54153  1.0000
  H   H13       1.0  0.60523  0.14867  0.33597  1.0000
  H   H14       1.0  0.39477  0.85135  0.66405  1.0000
  H   H15       1.0  0.42152  0.05752  0.13619  1.0000
  H   H16       1.0  0.57849  0.94248  0.86382  1.0000
  H   H17       1.0  0.86827  0.56154  0.71147  1.0000
  H   H18       1.0  0.13173  0.43843  0.28852  1.0000
  H   H19       1.0  0.29326  0.57629  0.49540  1.0000
  H   H20       1.0  0.70671  0.42368  0.50458  1.0000
  H   H21       1.0  0.00469  0.19739  0.42818  1.0000
  H   H22       1.0  0.99534  0.80261  0.57182  1.0000
  H   H23       1.0  0.01779  0.76080  0.33625  1.0000
  H   H24       1.0  0.98222  0.23920  0.66374  1.0000
  H   H25       1.0  0.13538  0.99440  0.06232  1.0000
  H   H26       1.0  0.86462  0.00559  0.93768  1.0000
  H   H27       1.0  0.11832  0.93599  0.90620  1.0000
  H   H28       1.0  0.88168  0.06401  0.09379  1.0000
  C   C1        1.0  0.22223  0.48711  0.97190  1.0000
  C   C2        1.0  0.77776  0.51291  0.02811  1.0000
  C   C3        1.0  0.25480  0.38192  0.01895  1.0000
  C   C4        1.0  0.74520  0.61809  0.98104  1.0000
  C   C5        1.0  0.35511  0.40787  0.13076  1.0000
  C   C6        1.0  0.64489  0.59214  0.86925  1.0000
  C   C7        1.0  0.41904  0.54289  0.19912  1.0000
  C   C8        1.0  0.58094  0.45713  0.80088  1.0000
  C   C9        1.0  0.38102  0.64164  0.14478  1.0000
  C   C10       1.0  0.61896  0.35838  0.85522  1.0000
  C   C11       1.0  0.44219  0.77840  0.20473  1.0000
  C   C12       1.0  0.55779  0.22161  0.79526  1.0000
  C   C13       1.0  0.54474  0.82017  0.31979  1.0000
  C   C14       1.0  0.45524  0.17983  0.68020  1.0000
  C   C15       1.0  0.58090  0.71957  0.37551  1.0000
  C   C16       1.0  0.41909  0.28044  0.62449  1.0000
  C   C17       1.0  0.51969  0.58728  0.31813  1.0000
  C   C18       1.0  0.48030  0.41273  0.68187  1.0000
  C   C19       1.0  0.60308  0.95821  0.36991  1.0000
  C   C20       1.0  0.39691  0.04180  0.63010  1.0000
  C   C21       1.0  0.55939  0.04276  0.30387  1.0000
  C   C22       1.0  0.44060  0.95724  0.69613  1.0000
  C   C23       1.0  0.45614  0.99267  0.18968  1.0000
  C   C24       1.0  0.54385  0.00732  0.81032  1.0000
  C   C25       1.0  0.19181  0.65745  0.73779  1.0000
  C   C26       1.0  0.80818  0.34252  0.26218  1.0000
  C   C27       1.0  0.09096  0.57597  0.61590  1.0000
  C   C28       1.0  0.90904  0.42401  0.38408  1.0000
  C   C29       1.0  0.92511  0.53378  0.61850  1.0000
  C   C30       1.0  0.07492  0.46622  0.38151  1.0000
  C   C31       1.0  0.16489  0.54164  0.49641  1.0000
  C   C32       1.0  0.83512  0.45836  0.50360  1.0000
  C   C33       1.0  0.00307  0.11176  0.46068  1.0000
  C   C34       1.0  0.99695  0.88824  0.53932  1.0000
  C   C35       1.0  0.01065  0.86518  0.40916  1.0000
  C   C36       1.0  0.98936  0.13483  0.59084  1.0000
  C   C37       1.0  0.01322  0.97656  0.36862  1.0000
  C   C38       1.0  0.98679  0.02343  0.63138  1.0000
  C   C39       1.0  0.01868  0.94828  0.22674  1.0000
  C   C40       1.0  0.98133  0.05172  0.77326  1.0000
  N   N1        1.0  0.28700  0.61426  0.03192  1.0000
  N   N2        1.0  0.71299  0.38575  0.96809  1.0000
  N   N3        1.0  0.39639  0.86315  0.14149  1.0000
  N   N4        1.0  0.60360  0.13686  0.85851  1.0000
  O   O1        1.0  0.33531  0.70153  0.73240  1.0000
  O   O2        1.0  0.66468  0.29847  0.26760  1.0000
  O   O3        1.0  0.11948  0.67405  0.84506  1.0000
  O   O4        1.0  0.88053  0.32595  0.15493  1.0000
  O   O5        1.0  0.00881  0.82497  0.14803  1.0000
  O   O6        1.0  0.99119  0.17503  0.85197  1.0000
  O   O7        1.0  0.03504  0.05367  0.19374  1.0000
  O   O8        1.0  0.96495  0.94631  0.80625  1.0000
  O   O9        1.0  0.20172  0.94504  0.98069  1.0000
  O   O10       1.0  0.79828  0.05497  0.01931  1.0000
