data_image0
_chemical_formula_structural       Cu4H28C16N4O20
_chemical_formula_sum              "Cu4 H28 C16 N4 O20"
_cell_length_a       6.00743
_cell_length_b       9.95128
_cell_length_c       11.1651
_cell_angle_alpha    89.9994
_cell_angle_beta     99.1492
_cell_angle_gamma    90.0001

_space_group_name_H-M_alt    "P 1"
_space_group_IT_number       1

loop_
  _space_group_symop_operation_xyz
  'x, y, z'

loop_
  _atom_site_type_symbol
  _atom_site_label
  _atom_site_symmetry_multiplicity
  _atom_site_fract_x
  _atom_site_fract_y
  _atom_site_fract_z
  _atom_site_occupancy
  Cu  Cu1       1.0  0.85716  0.24058  0.75223  1.0000
  Cu  Cu2       1.0  0.14285  0.74059  0.74777  1.0000
  Cu  Cu3       1.0  0.14284  0.75942  0.24777  1.0000
  Cu  Cu4       1.0  0.85714  0.25942  0.25223  1.0000
  H   H1        1.0  0.87845  0.20889  0.98264  1.0000
  H   H2        1.0  0.12156  0.70890  0.51735  1.0000
  H   H3        1.0  0.12155  0.79110  0.01736  1.0000
  H   H4        1.0  0.87844  0.29108  0.48265  1.0000
  H   H5        1.0  0.11795  0.16961  0.94205  1.0000
  H   H6        1.0  0.88208  0.66961  0.55795  1.0000
  H   H7        1.0  0.88206  0.83040  0.05794  1.0000
  H   H8        1.0  0.11792  0.33038  0.44206  1.0000
  H   H9        1.0  0.49305  0.29304  0.83635  1.0000
  H   H10       1.0  0.50696  0.79304  0.66366  1.0000
  H   H11       1.0  0.50695  0.70696  0.16367  1.0000
  H   H12       1.0  0.49303  0.20696  0.33634  1.0000
  H   H13       1.0  0.49011  0.49745  0.64994  1.0000
  H   H14       1.0  0.50992  0.99747  0.85005  1.0000
  H   H15       1.0  0.50988  0.50255  0.35007  1.0000
  H   H16       1.0  0.49009  0.00254  0.14994  1.0000
  H   H17       1.0  0.27172  0.38717  0.67319  1.0000
  H   H18       1.0  0.72831  0.88717  0.82681  1.0000
  H   H19       1.0  0.72829  0.61283  0.32682  1.0000
  H   H20       1.0  0.27169  0.11283  0.17318  1.0000
  H   H21       1.0  0.72163  0.43880  0.95504  1.0000
  H   H22       1.0  0.27839  0.93880  0.54495  1.0000
  H   H23       1.0  0.27838  0.56121  0.04496  1.0000
  H   H24       1.0  0.72161  0.06121  0.45504  1.0000
  H   H25       1.0  0.53504  0.54606  0.85853  1.0000
  H   H26       1.0  0.46497  0.04606  0.64146  1.0000
  H   H27       1.0  0.46497  0.45395  0.14147  1.0000
  H   H28       1.0  0.53501  0.95395  0.35855  1.0000
  C   C1        1.0  0.45235  0.39216  0.66967  1.0000
  C   C2        1.0  0.54768  0.89217  0.83032  1.0000
  C   C3        1.0  0.54765  0.60784  0.33033  1.0000
  C   C4        1.0  0.45233  0.10784  0.16967  1.0000
  C   C5        1.0  0.51332  0.31238  0.56465  1.0000
  C   C6        1.0  0.48669  0.81239  0.93537  1.0000
  C   C7        1.0  0.48668  0.68762  0.43536  1.0000
  C   C8        1.0  0.51329  0.18762  0.06463  1.0000
  C   C9        1.0  0.66951  0.47095  0.86051  1.0000
  C   C10       1.0  0.33051  0.97096  0.63949  1.0000
  C   C11       1.0  0.33050  0.52905  0.13950  1.0000
  C   C12       1.0  0.66948  0.02905  0.36051  1.0000
  C   C13       1.0  0.87582  0.53020  0.81470  1.0000
  C   C14       1.0  0.12417  0.03020  0.68530  1.0000
  C   C15       1.0  0.12418  0.46980  0.18531  1.0000
  C   C16       1.0  0.87582  0.96979  0.31469  1.0000
  N   N1        1.0  0.58741  0.35243  0.78711  1.0000
  N   N2        1.0  0.41261  0.85244  0.71289  1.0000
  N   N3        1.0  0.41260  0.64757  0.21290  1.0000
  N   N4        1.0  0.58738  0.14757  0.28710  1.0000
  O   O1        1.0  0.70119  0.24582  0.58341  1.0000
  O   O2        1.0  0.29882  0.74585  0.91659  1.0000
  O   O3        1.0  0.29882  0.75418  0.41660  1.0000
  O   O4        1.0  0.70117  0.25417  0.08340  1.0000
  O   O5        1.0  0.39234  0.31630  0.46210  1.0000
  O   O6        1.0  0.60766  0.81632  0.03789  1.0000
  O   O7        1.0  0.60766  0.68370  0.53790  1.0000
  O   O8        1.0  0.39235  0.18369  0.96211  1.0000
  O   O9        1.0  0.02317  0.45110  0.78820  1.0000
  O   O10       1.0  0.97687  0.95111  0.71179  1.0000
  O   O11       1.0  0.97684  0.54890  0.21180  1.0000
  O   O12       1.0  0.02309  0.04888  0.28818  1.0000
  O   O13       1.0  0.88202  0.65902  0.80789  1.0000
  O   O14       1.0  0.11800  0.15902  0.69212  1.0000
  O   O15       1.0  0.11799  0.34098  0.19212  1.0000
  O   O16       1.0  0.88200  0.84098  0.30790  1.0000
  O   O17       1.0  0.94956  0.16647  0.91778  1.0000
  O   O18       1.0  0.05046  0.66647  0.58222  1.0000
  O   O19       1.0  0.05044  0.83352  0.08222  1.0000
  O   O20       1.0  0.94954  0.33351  0.41779  1.0000
