data_image0
_chemical_formula_structural       K2Lu2H16C8O24
_chemical_formula_sum              "K2 Lu2 H16 C8 O24"
_cell_length_a       8.76276
_cell_length_b       9.14084
_cell_length_c       9.14083
_cell_angle_alpha    76.7175
_cell_angle_beta     61.3595
_cell_angle_gamma    61.359

_space_group_name_H-M_alt    "P 1"
_space_group_IT_number       1

loop_
  _space_group_symop_operation_xyz
  'x, y, z'

loop_
  _atom_site_type_symbol
  _atom_site_label
  _atom_site_symmetry_multiplicity
  _atom_site_fract_x
  _atom_site_fract_y
  _atom_site_fract_z
  _atom_site_occupancy
  K   K1        1.0  0.12497  0.75002  0.75001  1.0000
  K   K2        1.0  0.87503  0.24998  0.24999  1.0000
  Lu  Lu1       1.0  0.62504  0.75001  0.75001  1.0000
  Lu  Lu2       1.0  0.37501  0.25001  0.25001  1.0000
  H   H1        1.0  0.35965  0.40093  0.58951  1.0000
  H   H2        1.0  0.85006  0.09910  0.91050  1.0000
  H   H3        1.0  0.94919  0.41047  0.90088  1.0000
  H   H4        1.0  0.76054  0.08953  0.59911  1.0000
  H   H5        1.0  0.64036  0.59907  0.41051  1.0000
  H   H6        1.0  0.14993  0.90089  0.08949  1.0000
  H   H7        1.0  0.05082  0.58951  0.09909  1.0000
  H   H8        1.0  0.23945  0.91048  0.40089  1.0000
  H   H9        1.0  0.50415  0.32900  0.67295  1.0000
  H   H10       1.0  0.00611  0.17100  0.82705  1.0000
  H   H11       1.0  0.17714  0.32703  0.82896  1.0000
  H   H12       1.0  0.83313  0.17297  0.67104  1.0000
  H   H13       1.0  0.49586  0.67099  0.32707  1.0000
  H   H14       1.0  0.99390  0.82898  0.17293  1.0000
  H   H15       1.0  0.82287  0.67294  0.17105  1.0000
  H   H16       1.0  0.16687  0.82703  0.32897  1.0000
  C   C1        1.0  0.60522  0.98125  0.97170  1.0000
  C   C2        1.0  0.05817  0.51876  0.52830  1.0000
  C   C3        1.0  0.57694  0.02829  0.48125  1.0000
  C   C4        1.0  0.58648  0.47171  0.01874  1.0000
  C   C5        1.0  0.39476  0.01875  0.02829  1.0000
  C   C6        1.0  0.94180  0.48125  0.47171  1.0000
  C   C7        1.0  0.42306  0.97170  0.51876  1.0000
  C   C8        1.0  0.41351  0.52831  0.98124  1.0000
  O   O1        1.0  0.36556  0.39172  0.69633  1.0000
  O   O2        1.0  0.95359  0.10829  0.80368  1.0000
  O   O3        1.0  0.06192  0.30365  0.89163  1.0000
  O   O4        1.0  0.75721  0.19635  0.60835  1.0000
  O   O5        1.0  0.63445  0.60827  0.30369  1.0000
  O   O6        1.0  0.04641  0.89169  0.19631  1.0000
  O   O7        1.0  0.93808  0.69634  0.10836  1.0000
  O   O8        1.0  0.24280  0.80365  0.39164  1.0000
  O   O9        1.0  0.73037  0.87499  0.85750  1.0000
  O   O10       1.0  0.96287  0.62503  0.64250  1.0000
  O   O11       1.0  0.58789  0.14250  0.37498  1.0000
  O   O12       1.0  0.60535  0.35752  0.12502  1.0000
  O   O13       1.0  0.26961  0.12503  0.14249  1.0000
  O   O14       1.0  0.03713  0.37498  0.35751  1.0000
  O   O15       1.0  0.41212  0.85751  0.62503  1.0000
  O   O16       1.0  0.39463  0.64251  0.87498  1.0000
  O   O17       1.0  0.63352  0.06207  0.04510  1.0000
  O   O18       1.0  0.24069  0.43794  0.45490  1.0000
  O   O19       1.0  0.67863  0.95491  0.56208  1.0000
  O   O20       1.0  0.69562  0.54509  0.93791  1.0000
  O   O21       1.0  0.36647  0.93794  0.95489  1.0000
  O   O22       1.0  0.75929  0.56207  0.54512  1.0000
  O   O23       1.0  0.32137  0.04511  0.43793  1.0000
  O   O24       1.0  0.30439  0.45490  0.06208  1.0000
