data_image0
_chemical_formula_structural       Cd2H36C44N4O8
_chemical_formula_sum              "Cd2 H36 C44 N4 O8"
_cell_length_a       9.39416
_cell_length_b       10.1014
_cell_length_c       11.3809
_cell_angle_alpha    99.0662
_cell_angle_beta     92.0505
_cell_angle_gamma    117.617

_space_group_name_H-M_alt    "P 1"
_space_group_IT_number       1

loop_
  _space_group_symop_operation_xyz
  'x, y, z'

loop_
  _atom_site_type_symbol
  _atom_site_label
  _atom_site_symmetry_multiplicity
  _atom_site_fract_x
  _atom_site_fract_y
  _atom_site_fract_z
  _atom_site_occupancy
  Cd  Cd1       1.0  0.16434  0.49836  0.10565  1.0000
  Cd  Cd2       1.0  0.83566  0.50164  0.89435  1.0000
  H   H1        1.0  0.39169  0.49170  0.89625  1.0000
  H   H2        1.0  0.60830  0.50830  0.10375  1.0000
  H   H3        1.0  0.39345  0.31867  0.72037  1.0000
  H   H4        1.0  0.60655  0.68133  0.27963  1.0000
  H   H5        1.0  0.97495  0.95451  0.82744  1.0000
  H   H6        1.0  0.02504  0.04549  0.17256  1.0000
  H   H7        1.0  0.98782  0.14991  0.00041  1.0000
  H   H8        1.0  0.01218  0.85009  0.99959  1.0000
  H   H9        1.0  0.05990  0.89228  0.64852  1.0000
  H   H10       1.0  0.94009  0.10772  0.35148  1.0000
  H   H11       1.0  0.35365  0.14330  0.56090  1.0000
  H   H12       1.0  0.64635  0.85670  0.43910  1.0000
  H   H13       1.0  0.46356  0.03473  0.40523  1.0000
  H   H14       1.0  0.53644  0.96527  0.59477  1.0000
  H   H15       1.0  0.41540  0.82881  0.22996  1.0000
  H   H16       1.0  0.58460  0.17119  0.77004  1.0000
  H   H17       1.0  0.93687  0.57601  0.28276  1.0000
  H   H18       1.0  0.06313  0.42399  0.71724  1.0000
  H   H19       1.0  0.96370  0.76843  0.46010  1.0000
  H   H20       1.0  0.03630  0.23157  0.53990  1.0000
  H   H21       1.0  0.53928  0.40822  0.53902  1.0000
  H   H22       1.0  0.46072  0.59178  0.46098  1.0000
  H   H23       1.0  0.81324  0.43110  0.53547  1.0000
  H   H24       1.0  0.18676  0.56890  0.46453  1.0000
  H   H25       1.0  0.88575  0.32115  0.34892  1.0000
  H   H26       1.0  0.11425  0.67885  0.65108  1.0000
  H   H27       1.0  0.41395  0.17968  0.16846  1.0000
  H   H28       1.0  0.58605  0.82032  0.83154  1.0000
  H   H29       1.0  0.27586  0.32000  0.44683  1.0000
  H   H30       1.0  0.72414  0.68000  0.55317  1.0000
  H   H31       1.0  0.20103  0.15491  0.33392  1.0000
  H   H32       1.0  0.79897  0.84508  0.66608  1.0000
  H   H33       1.0  0.59514  0.06233  0.09348  1.0000
  H   H34       1.0  0.40486  0.93767  0.90652  1.0000
  H   H35       1.0  0.80406  0.16289  0.15628  1.0000
  H   H36       1.0  0.19594  0.83711  0.84372  1.0000
  C   C1        1.0  0.29970  0.37206  0.87748  1.0000
  C   C2        1.0  0.70030  0.62794  0.12252  1.0000
  C   C3        1.0  0.29894  0.27268  0.77780  1.0000
  C   C4        1.0  0.70106  0.72732  0.22220  1.0000
  C   C5        1.0  0.17866  0.11915  0.75542  1.0000
  C   C6        1.0  0.82134  0.88085  0.24458  1.0000
  C   C7        1.0  0.06689  0.07366  0.83913  1.0000
  C   C8        1.0  0.93311  0.92635  0.16087  1.0000
  C   C9        1.0  0.07482  0.18072  0.93553  1.0000
  C   C10       1.0  0.92518  0.81928  0.06447  1.0000
  C   C11       1.0  0.15863  0.00671  0.64988  1.0000
  C   C12       1.0  0.84137  0.99329  0.35013  1.0000
  C   C13       1.0  0.24854  0.03207  0.55776  1.0000
  C   C14       1.0  0.75145  0.96793  0.44224  1.0000
  C   C15       1.0  0.21912  0.91696  0.45156  1.0000
  C   C16       1.0  0.78088  0.08304  0.54844  1.0000
  C   C17       1.0  0.34533  0.93399  0.38221  1.0000
  C   C18       1.0  0.65467  0.06602  0.61779  1.0000
  C   C19       1.0  0.31990  0.82029  0.28497  1.0000
  C   C20       1.0  0.68011  0.17971  0.71503  1.0000
  C   C21       1.0  0.05213  0.67863  0.31411  1.0000
  C   C22       1.0  0.94788  0.32137  0.68589  1.0000
  C   C23       1.0  0.06836  0.78611  0.41337  1.0000
  C   C24       1.0  0.93164  0.21389  0.58663  1.0000
  C   C25       1.0  0.45862  0.29418  0.35364  1.0000
  C   C26       1.0  0.54138  0.70582  0.64635  1.0000
  C   C27       1.0  0.57196  0.36411  0.45653  1.0000
  C   C28       1.0  0.42804  0.63588  0.54347  1.0000
  C   C29       1.0  0.72578  0.37558  0.45482  1.0000
  C   C30       1.0  0.27422  0.62442  0.54518  1.0000
  C   C31       1.0  0.76641  0.31411  0.35106  1.0000
  C   C32       1.0  0.23359  0.68589  0.64894  1.0000
  C   C33       1.0  0.65323  0.24121  0.24764  1.0000
  C   C34       1.0  0.34677  0.75879  0.75236  1.0000
  C   C35       1.0  0.50114  0.23431  0.24957  1.0000
  C   C36       1.0  0.49886  0.76569  0.75043  1.0000
  C   C37       1.0  0.29103  0.27637  0.35578  1.0000
  C   C38       1.0  0.70897  0.72363  0.64422  1.0000
  C   C39       1.0  0.24558  0.35836  0.27122  1.0000
  C   C40       1.0  0.75442  0.64164  0.72878  1.0000
  C   C41       1.0  0.69621  0.17443  0.13469  1.0000
  C   C42       1.0  0.30379  0.82557  0.86530  1.0000
  C   C43       1.0  0.73155  0.28156  0.04637  1.0000
  C   C44       1.0  0.26845  0.71844  0.95363  1.0000
  N   N1        1.0  0.18834  0.32797  0.95452  1.0000
  N   N2        1.0  0.81165  0.67202  0.04548  1.0000
  N   N3        1.0  0.17616  0.69366  0.25170  1.0000
  N   N4        1.0  0.82385  0.30634  0.74830  1.0000
  O   O1        1.0  0.09522  0.30597  0.23685  1.0000
  O   O2        1.0  0.90478  0.69403  0.76315  1.0000
  O   O3        1.0  0.35657  0.47457  0.24021  1.0000
  O   O4        1.0  0.64343  0.52543  0.75979  1.0000
  O   O5        1.0  0.87905  0.38594  0.04976  1.0000
  O   O6        1.0  0.12095  0.61406  0.95024  1.0000
  O   O7        1.0  0.61767  0.27063  0.97658  1.0000
  O   O8        1.0  0.38233  0.72937  0.02342  1.0000
