data_image0
_chemical_formula_structural       Ag4H24C26S2N6O14
_chemical_formula_sum              "Ag4 H24 C26 S2 N6 O14"
_cell_length_a       7.58828
_cell_length_b       10.0739
_cell_length_c       10.9921
_cell_angle_alpha    78.2942
_cell_angle_beta     71.4055
_cell_angle_gamma    84.6152

_space_group_name_H-M_alt    "P 1"
_space_group_IT_number       1

loop_
  _space_group_symop_operation_xyz
  'x, y, z'

loop_
  _atom_site_type_symbol
  _atom_site_label
  _atom_site_symmetry_multiplicity
  _atom_site_fract_x
  _atom_site_fract_y
  _atom_site_fract_z
  _atom_site_occupancy
  Ag  Ag1       1.0  0.29901  0.18399  0.70517  1.0000
  Ag  Ag2       1.0  0.70098  0.81601  0.29484  1.0000
  Ag  Ag3       1.0  0.31889  0.44061  0.25513  1.0000
  Ag  Ag4       1.0  0.68112  0.55939  0.74487  1.0000
  H   H1        1.0  0.71281  0.15280  0.77834  1.0000
  H   H2        1.0  0.28719  0.84719  0.22166  1.0000
  H   H3        1.0  0.93631  0.05228  0.89635  1.0000
  H   H4        1.0  0.06369  0.94771  0.10365  1.0000
  H   H5        1.0  0.08641  0.73849  0.66216  1.0000
  H   H6        1.0  0.91359  0.26150  0.33784  1.0000
  H   H7        1.0  0.42471  0.09406  0.94287  1.0000
  H   H8        1.0  0.57529  0.90594  0.05713  1.0000
  H   H9        1.0  0.43805  0.18444  0.13595  1.0000
  H   H10       1.0  0.56195  0.81556  0.86406  1.0000
  H   H11       1.0  0.20256  0.55306  0.99965  1.0000
  H   H12       1.0  0.79743  0.44695  0.00035  1.0000
  H   H13       1.0  0.20018  0.46408  0.80360  1.0000
  H   H14       1.0  0.79980  0.53592  0.19642  1.0000
  H   H15       1.0  0.57764  0.29249  0.41054  1.0000
  H   H16       1.0  0.42236  0.70751  0.58946  1.0000
  H   H17       1.0  0.71892  0.33791  0.57529  1.0000
  H   H18       1.0  0.28108  0.66209  0.42471  1.0000
  H   H19       1.0  0.65892  0.00390  0.52539  1.0000
  H   H20       1.0  0.34108  0.99610  0.47461  1.0000
  H   H21       1.0  0.07981  0.68387  0.17615  1.0000
  H   H22       1.0  0.92020  0.31613  0.82385  1.0000
  H   H23       1.0  0.01705  0.66110  0.33279  1.0000
  H   H24       1.0  0.98296  0.33890  0.66721  1.0000
  C   C1        1.0  0.87696  0.88401  0.62223  1.0000
  C   C2        1.0  0.12303  0.11598  0.37778  1.0000
  C   C3        1.0  0.77168  0.00313  0.65499  1.0000
  C   C4        1.0  0.22833  0.99687  0.34501  1.0000
  C   C5        1.0  0.79393  0.06119  0.75487  1.0000
  C   C6        1.0  0.20606  0.93880  0.24513  1.0000
  C   C7        1.0  0.92068  0.00532  0.81950  1.0000
  C   C8        1.0  0.07932  0.99468  0.18050  1.0000
  C   C9        1.0  0.02786  0.88917  0.78558  1.0000
  C   C10       1.0  0.97214  0.11082  0.21442  1.0000
  C   C11       1.0  0.00496  0.82892  0.68882  1.0000
  C   C12       1.0  0.99505  0.17108  0.31118  1.0000
  C   C13       1.0  0.85853  0.82044  0.51548  1.0000
  C   C14       1.0  0.14148  0.17956  0.48451  1.0000
  C   C15       1.0  0.38019  0.19788  0.95441  1.0000
  C   C16       1.0  0.61980  0.80213  0.04559  1.0000
  C   C17       1.0  0.38340  0.24736  0.06268  1.0000
  C   C18       1.0  0.61660  0.75265  0.93732  1.0000
  C   C19       1.0  0.25508  0.45078  0.98710  1.0000
  C   C20       1.0  0.74492  0.54923  0.01291  1.0000
  C   C21       1.0  0.25488  0.40184  0.87739  1.0000
  C   C22       1.0  0.74510  0.59816  0.12262  1.0000
  C   C23       1.0  0.54149  0.38444  0.45181  1.0000
  C   C24       1.0  0.45851  0.61556  0.54820  1.0000
  C   C25       1.0  0.61901  0.40994  0.54351  1.0000
  C   C26       1.0  0.38099  0.59006  0.45650  1.0000
  S   S1        1.0  0.19696  0.82629  0.86573  1.0000
  S   S2        1.0  0.80305  0.17371  0.13426  1.0000
  N   N1        1.0  0.31697  0.27513  0.86106  1.0000
  N   N2        1.0  0.68302  0.72488  0.13894  1.0000
  N   N3        1.0  0.31987  0.37363  0.07969  1.0000
  N   N4        1.0  0.68012  0.62638  0.92032  1.0000
  N   N5        1.0  0.42301  0.47480  0.40771  1.0000
  N   N6        1.0  0.57699  0.52520  0.59229  1.0000
  O   O1        1.0  0.31451  0.72672  0.79241  1.0000
  O   O2        1.0  0.68552  0.27329  0.20757  1.0000
  O   O3        1.0  0.09320  0.76450  0.00112  1.0000
  O   O4        1.0  0.90683  0.23548  0.99887  1.0000
  O   O5        1.0  0.29776  0.94606  0.86201  1.0000
  O   O6        1.0  0.70223  0.05395  0.13799  1.0000
  O   O7        1.0  0.65279  0.06462  0.59102  1.0000
  O   O8        1.0  0.34721  0.93538  0.40898  1.0000
  O   O9        1.0  0.95723  0.71873  0.48272  1.0000
  O   O10       1.0  0.04277  0.28126  0.51728  1.0000
  O   O11       1.0  0.73402  0.87924  0.46115  1.0000
  O   O12       1.0  0.26598  0.12075  0.53885  1.0000
  O   O13       1.0  0.06185  0.61486  0.25603  1.0000
  O   O14       1.0  0.93815  0.38514  0.74396  1.0000
