data_image0
_chemical_formula_structural       Cd2H8C12S4N8
_chemical_formula_sum              "Cd2 H8 C12 S4 N8"
_cell_length_a       7.29136
_cell_length_b       7.29324
_cell_length_c       10.2425
_cell_angle_alpha    98.8028
_cell_angle_beta     103.859
_cell_angle_gamma    116.648

_space_group_name_H-M_alt    "P 1"
_space_group_IT_number       1

loop_
  _space_group_symop_operation_xyz
  'x, y, z'

loop_
  _atom_site_type_symbol
  _atom_site_label
  _atom_site_symmetry_multiplicity
  _atom_site_fract_x
  _atom_site_fract_y
  _atom_site_fract_z
  _atom_site_occupancy
  Cd  Cd1       1.0  0.65888  0.90874  0.75001  1.0000
  Cd  Cd2       1.0  0.34113  0.09126  0.24999  1.0000
  H   H1        1.0  0.44165  0.68226  0.96852  1.0000
  H   H2        1.0  0.78605  0.52674  0.46849  1.0000
  H   H3        1.0  0.55835  0.31774  0.03148  1.0000
  H   H4        1.0  0.21395  0.47326  0.53151  1.0000
  H   H5        1.0  0.11090  0.35525  0.96959  1.0000
  H   H6        1.0  0.11413  0.85867  0.46964  1.0000
  H   H7        1.0  0.88910  0.64475  0.03041  1.0000
  H   H8        1.0  0.88587  0.14133  0.53036  1.0000
  C   C1        1.0  0.90857  0.12988  0.09854  1.0000
  C   C2        1.0  0.46859  0.18979  0.59852  1.0000
  C   C3        1.0  0.09142  0.87011  0.90145  1.0000
  C   C4        1.0  0.53142  0.81021  0.40148  1.0000
  C   C5        1.0  0.31590  0.56056  0.87084  1.0000
  C   C6        1.0  0.81020  0.55487  0.37081  1.0000
  C   C7        1.0  0.68410  0.43944  0.12916  1.0000
  C   C8        1.0  0.18980  0.44513  0.62918  1.0000
  C   C9        1.0  0.13291  0.37943  0.87082  1.0000
  C   C10       1.0  0.99130  0.73786  0.37083  1.0000
  C   C11       1.0  0.86709  0.62057  0.12918  1.0000
  C   C12       1.0  0.00870  0.26214  0.62917  1.0000
  S   S1        1.0  0.10792  0.29743  0.24441  1.0000
  S   S2        1.0  0.44703  0.13633  0.74441  1.0000
  S   S3        1.0  0.89211  0.70259  0.75561  1.0000
  S   S4        1.0  0.55296  0.86366  0.25560  1.0000
  N   N1        1.0  0.76246  0.01027  0.99184  1.0000
  N   N2        1.0  0.48143  0.22925  0.49181  1.0000
  N   N3        1.0  0.23751  0.98972  0.00814  1.0000
  N   N4        1.0  0.51859  0.77076  0.50819  1.0000
  N   N5        1.0  0.34321  0.59323  0.75002  1.0000
  N   N6        1.0  0.65679  0.40677  0.24998  1.0000
  N   N7        1.0  0.97970  0.22965  0.74998  1.0000
  N   N8        1.0  0.02030  0.77035  0.25001  1.0000
