data_image0
_chemical_formula_structural       Zn2H40C32N8Cl4
_chemical_formula_sum              "Zn2 H40 C32 N8 Cl4"
_cell_length_a       5.76985
_cell_length_b       11.2458
_cell_length_c       14.3421
_cell_angle_alpha    107.094
_cell_angle_beta     89.9902
_cell_angle_gamma    104.838

_space_group_name_H-M_alt    "P 1"
_space_group_IT_number       1

loop_
  _space_group_symop_operation_xyz
  'x, y, z'

loop_
  _atom_site_type_symbol
  _atom_site_label
  _atom_site_symmetry_multiplicity
  _atom_site_fract_x
  _atom_site_fract_y
  _atom_site_fract_z
  _atom_site_occupancy
  Zn  Zn1       1.0  0.09220  0.99987  0.74996  1.0000
  Zn  Zn2       1.0  0.90781  0.00013  0.25003  1.0000
  H   H1        1.0  0.33686  0.79640  0.64911  1.0000
  H   H2        1.0  0.46014  0.79694  0.14935  1.0000
  H   H3        1.0  0.66317  0.20360  0.35088  1.0000
  H   H4        1.0  0.53986  0.20305  0.85064  1.0000
  H   H5        1.0  0.58190  0.66770  0.69684  1.0000
  H   H6        1.0  0.08688  0.66801  0.19703  1.0000
  H   H7        1.0  0.41810  0.33229  0.30316  1.0000
  H   H8        1.0  0.91312  0.33199  0.80297  1.0000
  H   H9        1.0  0.72096  0.58961  0.81993  1.0000
  H   H10       1.0  0.86999  0.58975  0.31992  1.0000
  H   H11       1.0  0.27902  0.41037  0.18007  1.0000
  H   H12       1.0  0.13002  0.41026  0.68008  1.0000
  H   H13       1.0  0.85061  0.73237  0.91793  1.0000
  H   H14       1.0  0.88228  0.73250  0.41785  1.0000
  H   H15       1.0  0.14937  0.26762  0.08207  1.0000
  H   H16       1.0  0.11772  0.26751  0.58215  1.0000
  H   H17       1.0  0.40531  0.41972  0.85715  1.0000
  H   H18       1.0  0.01487  0.41990  0.35713  1.0000
  H   H19       1.0  0.59466  0.58027  0.14285  1.0000
  H   H20       1.0  0.98514  0.58011  0.64287  1.0000
  H   H21       1.0  0.22611  0.53191  0.88652  1.0000
  H   H22       1.0  0.30635  0.53178  0.38672  1.0000
  H   H23       1.0  0.77386  0.46809  0.11349  1.0000
  H   H24       1.0  0.69366  0.46823  0.61327  1.0000
  H   H25       1.0  0.90240  0.64504  0.03610  1.0000
  H   H26       1.0  0.74307  0.64542  0.53614  1.0000
  H   H27       1.0  0.09758  0.35496  0.96391  1.0000
  H   H28       1.0  0.25694  0.35459  0.46386  1.0000
  H   H29       1.0  0.81386  0.48712  0.94838  1.0000
  H   H30       1.0  0.67368  0.48757  0.44828  1.0000
  H   H31       1.0  0.18612  0.51288  0.05163  1.0000
  H   H32       1.0  0.32632  0.51244  0.55171  1.0000
  H   H33       1.0  0.42332  0.82083  0.99529  1.0000
  H   H34       1.0  0.39826  0.82094  0.49544  1.0000
  H   H35       1.0  0.57667  0.17916  0.00470  1.0000
  H   H36       1.0  0.60175  0.17908  0.50456  1.0000
  H   H37       1.0  0.19233  0.94853  0.93659  1.0000
  H   H38       1.0  0.75647  0.94881  0.43678  1.0000
  H   H39       1.0  0.80769  0.05148  0.06340  1.0000
  H   H40       1.0  0.24356  0.05122  0.56322  1.0000
  C   C1        1.0  0.36242  0.80017  0.72529  1.0000
  C   C2        1.0  0.43843  0.80063  0.22550  1.0000
  C   C3        1.0  0.63759  0.19982  0.27471  1.0000
  C   C4        1.0  0.56156  0.19936  0.77449  1.0000
  C   C5        1.0  0.49676  0.72751  0.75258  1.0000
  C   C6        1.0  0.23172  0.72782  0.25276  1.0000
  C   C7        1.0  0.50323  0.27248  0.24741  1.0000
  C   C8        1.0  0.76830  0.27219  0.74726  1.0000
  C   C9        1.0  0.52445  0.73390  0.85080  1.0000
  C   C10       1.0  0.21030  0.73409  0.35094  1.0000
  C   C11       1.0  0.47555  0.26609  0.14920  1.0000
  C   C12       1.0  0.78969  0.26592  0.64905  1.0000
  C   C13       1.0  0.67843  0.66219  0.88439  1.0000
  C   C14       1.0  0.98461  0.66235  0.38445  1.0000
  C   C15       1.0  0.32155  0.33780  0.11561  1.0000
  C   C16       1.0  0.01540  0.33766  0.61555  1.0000
  C   C17       1.0  0.35963  0.49638  0.91739  1.0000
  C   C18       1.0  0.13708  0.49633  0.41746  1.0000
  C   C19       1.0  0.64035  0.50362  0.08262  1.0000
  C   C20       1.0  0.86294  0.50368  0.58254  1.0000
  C   C21       1.0  0.74844  0.56103  0.00373  1.0000
  C   C22       1.0  0.81285  0.56131  0.50373  1.0000
  C   C23       1.0  0.25154  0.43897  0.99627  1.0000
  C   C24       1.0  0.18715  0.43870  0.49627  1.0000
  C   C25       1.0  0.41043  0.81362  0.91807  1.0000
  C   C26       1.0  0.40383  0.81383  0.41824  1.0000
  C   C27       1.0  0.58956  0.18637  0.08193  1.0000
  C   C28       1.0  0.59618  0.18619  0.58177  1.0000
  C   C29       1.0  0.28110  0.88440  0.88604  1.0000
  C   C30       1.0  0.60373  0.88470  0.38622  1.0000
  C   C31       1.0  0.71891  0.11559  0.11396  1.0000
  C   C32       1.0  0.39626  0.11531  0.61377  1.0000
  N   N1        1.0  0.25708  0.87804  0.79085  1.0000
  N   N2        1.0  0.62147  0.87854  0.29108  1.0000
  N   N3        1.0  0.74294  0.12196  0.20914  1.0000
  N   N4        1.0  0.37855  0.12147  0.70893  1.0000
  N   N5        1.0  0.57221  0.60408  0.95813  1.0000
  N   N6        1.0  0.03239  0.60422  0.45823  1.0000
  N   N7        1.0  0.42777  0.39591  0.04187  1.0000
  N   N8        1.0  0.96761  0.39578  0.54177  1.0000
  Cl  Cl1       1.0  0.85402  0.90066  0.61163  1.0000
  Cl  Cl2       1.0  0.04603  0.90050  0.11155  1.0000
  Cl  Cl3       1.0  0.14599  0.09934  0.38836  1.0000
  Cl  Cl4       1.0  0.95397  0.09950  0.88844  1.0000
