data_image0
_chemical_formula_structural       Zn2H24C14S2O20
_chemical_formula_sum              "Zn2 H24 C14 S2 O20"
_cell_length_a       7.02015
_cell_length_b       9.65166
_cell_length_c       9.65165
_cell_angle_alpha    114.484
_cell_angle_beta     92.5063
_cell_angle_gamma    92.5061

_space_group_name_H-M_alt    "P 1"
_space_group_IT_number       1

loop_
  _space_group_symop_operation_xyz
  'x, y, z'

loop_
  _atom_site_type_symbol
  _atom_site_label
  _atom_site_symmetry_multiplicity
  _atom_site_fract_x
  _atom_site_fract_y
  _atom_site_fract_z
  _atom_site_occupancy
  Zn  Zn1       1.0  0.49241  0.38140  0.59653  1.0000
  Zn  Zn2       1.0  0.99241  0.59653  0.38140  1.0000
  H   H1        1.0  0.46106  0.02516  0.80879  1.0000
  H   H2        1.0  0.96106  0.80879  0.02516  1.0000
  H   H3        1.0  0.40492  0.79471  0.85612  1.0000
  H   H4        1.0  0.90492  0.85612  0.79471  1.0000
  H   H5        1.0  0.62243  0.04838  0.32585  1.0000
  H   H6        1.0  0.12243  0.32585  0.04838  1.0000
  H   H7        1.0  0.68485  0.36577  0.09692  1.0000
  H   H8        1.0  0.18485  0.09692  0.36577  1.0000
  H   H9        1.0  0.37454  0.13150  0.63023  1.0000
  H   H10       1.0  0.87454  0.63023  0.13150  1.0000
  H   H11       1.0  0.60402  0.12851  0.63117  1.0000
  H   H12       1.0  0.10402  0.63117  0.12852  1.0000
  H   H13       1.0  0.28680  0.53949  0.84916  1.0000
  H   H14       1.0  0.78680  0.84916  0.53949  1.0000
  H   H15       1.0  0.16331  0.38919  0.74739  1.0000
  H   H16       1.0  0.66331  0.74739  0.38919  1.0000
  H   H17       1.0  0.67043  0.53287  0.87587  1.0000
  H   H18       1.0  0.17043  0.87587  0.53288  1.0000
  H   H19       1.0  0.79204  0.39486  0.77875  1.0000
  H   H20       1.0  0.29204  0.77875  0.39486  1.0000
  H   H21       1.0  0.59400  0.63670  0.54715  1.0000
  H   H22       1.0  0.09400  0.54715  0.63670  1.0000
  H   H23       1.0  0.38619  0.55921  0.48350  1.0000
  H   H24       1.0  0.88618  0.48350  0.55921  1.0000
  C   C1        1.0  0.58094  0.16493  0.03669  1.0000
  C   C2        1.0  0.08094  0.03669  0.16493  1.0000
  C   C3        1.0  0.49806  0.02832  0.92064  1.0000
  C   C4        1.0  0.99807  0.92064  0.02832  1.0000
  C   C5        1.0  0.46566  0.90013  0.94825  1.0000
  C   C6        1.0  0.96567  0.94825  0.90013  1.0000
  C   C7        1.0  0.51310  0.90736  0.09439  1.0000
  C   C8        1.0  0.01310  0.09439  0.90735  1.0000
  C   C9        1.0  0.58961  0.04186  0.21193  1.0000
  C   C10       1.0  0.08961  0.21193  0.04186  1.0000
  C   C11       1.0  0.62543  0.17223  0.18492  1.0000
  C   C12       1.0  0.12543  0.18492  0.17222  1.0000
  C   C13       1.0  0.71400  0.31365  0.30956  1.0000
  C   C14       1.0  0.21400  0.30956  0.31365  1.0000
  S   S1        1.0  0.48575  0.73971  0.12357  1.0000
  S   S2        1.0  0.98575  0.12357  0.73971  1.0000
  O   O1        1.0  0.49074  0.16498  0.59527  1.0000
  O   O2        1.0  0.99074  0.59527  0.16498  1.0000
  O   O3        1.0  0.25592  0.46705  0.74076  1.0000
  O   O4        1.0  0.75592  0.74076  0.46705  1.0000
  O   O5        1.0  0.70444  0.46912  0.77060  1.0000
  O   O6        1.0  0.20444  0.77060  0.46912  1.0000
  O   O7        1.0  0.48224  0.58709  0.57179  1.0000
  O   O8        1.0  0.98224  0.57179  0.58709  1.0000
  O   O9        1.0  0.73182  0.32466  0.44598  1.0000
  O   O10       1.0  0.23182  0.44598  0.32466  1.0000
  O   O11       1.0  0.77324  0.42079  0.27167  1.0000
  O   O12       1.0  0.27324  0.27167  0.42079  1.0000
  O   O13       1.0  0.61418  0.28483  0.00261  1.0000
  O   O14       1.0  0.11417  0.00261  0.28483  1.0000
  O   O15       1.0  0.48352  0.78391  0.28907  1.0000
  O   O16       1.0  0.98352  0.28907  0.78391  1.0000
  O   O17       1.0  0.65140  0.64948  0.06038  1.0000
  O   O18       1.0  0.15139  0.06038  0.64947  1.0000
  O   O19       1.0  0.30530  0.65740  0.03940  1.0000
  O   O20       1.0  0.80530  0.03940  0.65740  1.0000
