data_image0
_chemical_formula_structural       Co2H24C20S2N4O12
_chemical_formula_sum              "Co2 H24 C20 S2 N4 O12"
_cell_length_a       6.79072
_cell_length_b       9.73048
_cell_length_c       9.73046
_cell_angle_alpha    78.7536
_cell_angle_beta     78.5781
_cell_angle_gamma    78.5781

_space_group_name_H-M_alt    "P 1"
_space_group_IT_number       1

loop_
  _space_group_symop_operation_xyz
  'x, y, z'

loop_
  _atom_site_type_symbol
  _atom_site_label
  _atom_site_symmetry_multiplicity
  _atom_site_fract_x
  _atom_site_fract_y
  _atom_site_fract_z
  _atom_site_occupancy
  Co  Co1       1.0  0.75000  0.22940  0.77060  1.0000
  Co  Co2       1.0  0.25000  0.77060  0.22940  1.0000
  H   H1        1.0  0.76459  0.54302  0.30822  1.0000
  H   H2        1.0  0.73541  0.69178  0.45698  1.0000
  H   H3        1.0  0.23541  0.45698  0.69178  1.0000
  H   H4        1.0  0.26460  0.30822  0.54303  1.0000
  H   H5        1.0  0.81591  0.35019  0.16222  1.0000
  H   H6        1.0  0.68408  0.83778  0.64981  1.0000
  H   H7        1.0  0.18408  0.64981  0.83778  1.0000
  H   H8        1.0  0.31592  0.16222  0.35019  1.0000
  H   H9        1.0  0.83241  0.09612  0.28680  1.0000
  H   H10       1.0  0.66758  0.71320  0.90388  1.0000
  H   H11       1.0  0.16758  0.90389  0.71320  1.0000
  H   H12       1.0  0.33242  0.28680  0.09612  1.0000
  H   H13       1.0  0.80349  0.04674  0.55070  1.0000
  H   H14       1.0  0.69651  0.44930  0.95326  1.0000
  H   H15       1.0  0.19651  0.95326  0.44930  1.0000
  H   H16       1.0  0.30349  0.55070  0.04675  1.0000
  H   H17       1.0  0.89523  0.19222  0.98624  1.0000
  H   H18       1.0  0.60477  0.01376  0.80778  1.0000
  H   H19       1.0  0.10477  0.80778  0.01376  1.0000
  H   H20       1.0  0.39524  0.98624  0.19221  1.0000
  H   H21       1.0  0.68938  0.12897  0.03650  1.0000
  H   H22       1.0  0.81063  0.96349  0.87102  1.0000
  H   H23       1.0  0.31063  0.87102  0.96350  1.0000
  H   H24       1.0  0.18938  0.03650  0.12897  1.0000
  C   C1        1.0  0.76182  0.39554  0.50560  1.0000
  C   C2        1.0  0.73818  0.49440  0.60446  1.0000
  C   C3        1.0  0.23818  0.60446  0.49440  1.0000
  C   C4        1.0  0.26182  0.50560  0.39555  1.0000
  C   C5        1.0  0.77654  0.43198  0.35833  1.0000
  C   C6        1.0  0.72346  0.64166  0.56802  1.0000
  C   C7        1.0  0.22345  0.56802  0.64167  1.0000
  C   C8        1.0  0.27655  0.35834  0.43198  1.0000
  C   C9        1.0  0.80319  0.32475  0.27722  1.0000
  C   C10       1.0  0.69680  0.72278  0.67525  1.0000
  C   C11       1.0  0.19680  0.67525  0.72278  1.0000
  C   C12       1.0  0.30320  0.27722  0.32476  1.0000
  C   C13       1.0  0.81347  0.18378  0.34516  1.0000
  C   C14       1.0  0.68652  0.65484  0.81622  1.0000
  C   C15       1.0  0.18652  0.81623  0.65484  1.0000
  C   C16       1.0  0.31347  0.34516  0.18378  1.0000
  C   C17       1.0  0.79567  0.15438  0.49218  1.0000
  C   C18       1.0  0.70433  0.50782  0.84562  1.0000
  C   C19       1.0  0.20433  0.84562  0.50782  1.0000
  C   C20       1.0  0.29567  0.49218  0.15438  1.0000
  S   S1        1.0  0.25000  0.15335  0.84665  1.0000
  S   S2        1.0  0.75000  0.84665  0.15335  1.0000
  N   N1        1.0  0.76922  0.25752  0.57195  1.0000
  N   N2        1.0  0.73079  0.42805  0.74248  1.0000
  N   N3        1.0  0.23078  0.74248  0.42805  1.0000
  N   N4        1.0  0.26922  0.57195  0.25753  1.0000
  O   O1        1.0  0.10815  0.18407  0.74286  1.0000
  O   O2        1.0  0.39186  0.25714  0.81593  1.0000
  O   O3        1.0  0.89185  0.81593  0.25714  1.0000
  O   O4        1.0  0.60815  0.74286  0.18407  1.0000
  O   O5        1.0  0.12749  0.15639  0.99416  1.0000
  O   O6        1.0  0.37252  0.00584  0.84360  1.0000
  O   O7        1.0  0.87252  0.84360  0.00584  1.0000
  O   O8        1.0  0.62748  0.99416  0.15639  1.0000
  O   O9        1.0  0.74622  0.21224  0.97461  1.0000
  O   O10       1.0  0.75379  0.02539  0.78776  1.0000
  O   O11       1.0  0.25378  0.78776  0.02539  1.0000
  O   O12       1.0  0.24622  0.97461  0.21224  1.0000
