data_image0
_chemical_formula_structural       Zn4P4H28C16N8O16
_chemical_formula_sum              "Zn4 P4 H28 C16 N8 O16"
_cell_length_a       4.84112
_cell_length_b       11.1425
_cell_length_c       14.3886
_cell_angle_alpha    99.0868
_cell_angle_beta     89.9989
_cell_angle_gamma    89.9993

_space_group_name_H-M_alt    "P 1"
_space_group_IT_number       1

loop_
  _space_group_symop_operation_xyz
  'x, y, z'

loop_
  _atom_site_type_symbol
  _atom_site_label
  _atom_site_symmetry_multiplicity
  _atom_site_fract_x
  _atom_site_fract_y
  _atom_site_fract_z
  _atom_site_occupancy
  Zn  Zn1       1.0  0.78786  0.49373  0.87904  1.0000
  Zn  Zn2       1.0  0.28786  0.00627  0.62096  1.0000
  Zn  Zn3       1.0  0.21213  0.50626  0.12096  1.0000
  Zn  Zn4       1.0  0.71215  0.99374  0.37905  1.0000
  P   P1        1.0  0.30810  0.35055  0.92178  1.0000
  P   P2        1.0  0.80809  0.14945  0.57822  1.0000
  P   P3        1.0  0.69190  0.64944  0.07822  1.0000
  P   P4        1.0  0.19191  0.85055  0.42178  1.0000
  H   H1        1.0  0.95485  0.24421  0.86903  1.0000
  H   H2        1.0  0.45484  0.25578  0.63097  1.0000
  H   H3        1.0  0.04513  0.75578  0.13097  1.0000
  H   H4        1.0  0.54516  0.74421  0.36903  1.0000
  H   H5        1.0  0.00654  0.48958  0.66133  1.0000
  H   H6        1.0  0.50653  0.01043  0.83867  1.0000
  H   H7        1.0  0.99348  0.51043  0.33867  1.0000
  H   H8        1.0  0.49344  0.98957  0.16133  1.0000
  H   H9        1.0  0.31077  0.64529  0.80859  1.0000
  H   H10       1.0  0.81080  0.85470  0.69141  1.0000
  H   H11       1.0  0.68922  0.35471  0.19140  1.0000
  H   H12       1.0  0.18921  0.14529  0.30858  1.0000
  H   H13       1.0  0.33514  0.72372  0.63166  1.0000
  H   H14       1.0  0.83516  0.77629  0.86834  1.0000
  H   H15       1.0  0.66488  0.27628  0.36833  1.0000
  H   H16       1.0  0.16484  0.22371  0.13165  1.0000
  H   H17       1.0  0.01232  0.62041  0.52227  1.0000
  H   H18       1.0  0.51229  0.87959  0.97774  1.0000
  H   H19       1.0  0.98772  0.37959  0.47774  1.0000
  H   H20       1.0  0.48767  0.12040  0.02227  1.0000
  H   H21       1.0  0.72971  0.71972  0.51572  1.0000
  H   H22       1.0  0.22969  0.78029  0.98429  1.0000
  H   H23       1.0  0.27033  0.28028  0.48428  1.0000
  H   H24       1.0  0.77027  0.21972  0.01571  1.0000
  H   H25       1.0  0.69054  0.56167  0.47217  1.0000
  H   H26       1.0  0.19051  0.93834  0.02783  1.0000
  H   H27       1.0  0.30950  0.43833  0.52783  1.0000
  H   H28       1.0  0.80945  0.06166  0.97217  1.0000
  C   C1        1.0  0.82113  0.54255  0.67843  1.0000
  C   C2        1.0  0.32113  0.95746  0.82157  1.0000
  C   C3        1.0  0.17888  0.45746  0.32158  1.0000
  C   C4        1.0  0.67887  0.04255  0.17843  1.0000
  C   C5        1.0  0.45770  0.62594  0.75169  1.0000
  C   C6        1.0  0.95772  0.87406  0.74831  1.0000
  C   C7        1.0  0.54230  0.37407  0.24831  1.0000
  C   C8        1.0  0.04228  0.12593  0.25168  1.0000
  C   C9        1.0  0.46398  0.66325  0.66523  1.0000
  C   C10       1.0  0.96399  0.83675  0.83478  1.0000
  C   C11       1.0  0.53604  0.33676  0.33477  1.0000
  C   C12       1.0  0.03600  0.16324  0.16522  1.0000
  C   C13       1.0  0.78742  0.62819  0.52695  1.0000
  C   C14       1.0  0.28740  0.87181  0.97305  1.0000
  C   C15       1.0  0.21262  0.37182  0.47305  1.0000
  C   C16       1.0  0.71257  0.12819  0.02695  1.0000
  N   N1        1.0  0.69616  0.60978  0.62002  1.0000
  N   N2        1.0  0.19617  0.89022  0.87999  1.0000
  N   N3        1.0  0.30386  0.39022  0.37998  1.0000
  N   N4        1.0  0.80381  0.10977  0.12002  1.0000
  N   N5        1.0  0.68171  0.55134  0.75903  1.0000
  N   N6        1.0  0.18172  0.94866  0.74097  1.0000
  N   N7        1.0  0.31829  0.44865  0.24097  1.0000
  N   N8        1.0  0.81828  0.05134  0.25903  1.0000
  O   O1        1.0  0.18444  0.46013  0.88341  1.0000
  O   O2        1.0  0.68444  0.03987  0.61658  1.0000
  O   O3        1.0  0.81555  0.53987  0.11659  1.0000
  O   O4        1.0  0.31557  0.96013  0.38341  1.0000
  O   O5        1.0  0.26950  0.35784  0.02882  1.0000
  O   O6        1.0  0.76951  0.14216  0.47117  1.0000
  O   O7        1.0  0.73049  0.64215  0.97118  1.0000
  O   O8        1.0  0.23050  0.85784  0.52883  1.0000
  O   O9        1.0  0.15556  0.22840  0.87239  1.0000
  O   O10       1.0  0.65555  0.27159  0.62761  1.0000
  O   O11       1.0  0.84443  0.77159  0.12761  1.0000
  O   O12       1.0  0.34445  0.72840  0.37240  1.0000
  O   O13       1.0  0.61517  0.33472  0.89301  1.0000
  O   O14       1.0  0.11516  0.16527  0.60698  1.0000
  O   O15       1.0  0.38482  0.66527  0.10698  1.0000
  O   O16       1.0  0.88484  0.83473  0.39302  1.0000
