data_image0
_chemical_formula_structural       Zn2P2H20C12N6O12
_chemical_formula_sum              "Zn2 P2 H20 C12 N6 O12"
_cell_length_a       5.18019
_cell_length_b       9.81422
_cell_length_c       10.7236
_cell_angle_alpha    86.8934
_cell_angle_beta     83.9129
_cell_angle_gamma    74.4639

_space_group_name_H-M_alt    "P 1"
_space_group_IT_number       1

loop_
  _space_group_symop_operation_xyz
  'x, y, z'

loop_
  _atom_site_type_symbol
  _atom_site_label
  _atom_site_symmetry_multiplicity
  _atom_site_fract_x
  _atom_site_fract_y
  _atom_site_fract_z
  _atom_site_occupancy
  Zn  Zn1       1.0  0.31378  0.31777  0.04353  1.0000
  Zn  Zn2       1.0  0.68621  0.68224  0.95648  1.0000
  P   P1        1.0  0.79559  0.36531  0.89041  1.0000
  P   P2        1.0  0.20441  0.63470  0.10959  1.0000
  H   H1        1.0  0.94020  0.31192  0.68683  1.0000
  H   H2        1.0  0.05980  0.68809  0.31317  1.0000
  H   H3        1.0  0.70367  0.83586  0.23644  1.0000
  H   H4        1.0  0.29633  0.16414  0.76356  1.0000
  H   H5        1.0  0.65230  0.54563  0.38155  1.0000
  H   H6        1.0  0.34770  0.45437  0.61844  1.0000
  H   H7        1.0  0.51744  0.40527  0.40245  1.0000
  H   H8        1.0  0.48257  0.59473  0.59754  1.0000
  H   H9        1.0  0.58592  0.46342  0.25690  1.0000
  H   H10       1.0  0.41409  0.53658  0.74309  1.0000
  H   H11       1.0  0.76325  0.02750  0.07768  1.0000
  H   H12       1.0  0.23675  0.97250  0.92231  1.0000
  H   H13       1.0  0.25513  0.91276  0.37623  1.0000
  H   H14       1.0  0.74487  0.08724  0.62377  1.0000
  H   H15       1.0  0.81719  0.15638  0.36136  1.0000
  H   H16       1.0  0.18282  0.84362  0.63864  1.0000
  H   H17       1.0  0.82410  0.23445  0.20805  1.0000
  H   H18       1.0  0.17590  0.76555  0.79196  1.0000
  H   H19       1.0  0.06751  0.40298  0.28252  1.0000
  H   H20       1.0  0.93250  0.59702  0.71748  1.0000
  C   C1        1.0  0.59207  0.03570  0.14708  1.0000
  C   C2        1.0  0.40792  0.96430  0.85292  1.0000
  C   C3        1.0  0.32371  0.98005  0.30389  1.0000
  C   C4        1.0  0.67629  0.01995  0.69611  1.0000
  C   C5        1.0  0.20348  0.11324  0.25753  1.0000
  C   C6        1.0  0.79651  0.88676  0.74247  1.0000
  C   C7        1.0  0.93268  0.20986  0.29274  1.0000
  C   C8        1.0  0.06731  0.79013  0.70726  1.0000
  C   C9        1.0  0.93538  0.35266  0.34435  1.0000
  C   C10       1.0  0.06462  0.64734  0.65565  1.0000
  C   C11       1.0  0.02600  0.33687  0.47747  1.0000
  C   C12       1.0  0.97400  0.66313  0.52253  1.0000
  N   N1        1.0  0.37549  0.14627  0.15886  1.0000
  N   N2        1.0  0.62451  0.85373  0.84114  1.0000
  N   N3        1.0  0.56726  0.93465  0.23367  1.0000
  N   N4        1.0  0.43273  0.06535  0.76632  1.0000
  N   N5        1.0  0.65685  0.44829  0.34613  1.0000
  N   N6        1.0  0.34316  0.55171  0.65387  1.0000
  O   O1        1.0  0.58656  0.27870  0.90099  1.0000
  O   O2        1.0  0.41344  0.72131  0.09902  1.0000
  O   O3        1.0  0.65644  0.52261  0.85818  1.0000
  O   O4        1.0  0.34356  0.47740  0.14182  1.0000
  O   O5        1.0  0.01436  0.30808  0.77623  1.0000
  O   O6        1.0  0.98563  0.69192  0.22377  1.0000
  O   O7        1.0  0.94291  0.34853  0.00864  1.0000
  O   O8        1.0  0.05708  0.65148  0.99137  1.0000
  O   O9        1.0  0.26045  0.34436  0.49251  1.0000
  O   O10       1.0  0.73954  0.65565  0.50749  1.0000
  O   O11       1.0  0.85228  0.31514  0.56460  1.0000
  O   O12       1.0  0.14772  0.68486  0.43539  1.0000
