data_image0
_chemical_formula_structural       Zn4P4H32C28N8O16
_chemical_formula_sum              "Zn4 P4 H32 C28 N8 O16"
_cell_length_a       8.00174
_cell_length_b       8.3153
_cell_length_c       14.1155
_cell_angle_alpha    79.9916
_cell_angle_beta     80.4613
_cell_angle_gamma    75.773

_space_group_name_H-M_alt    "P 1"
_space_group_IT_number       1

loop_
  _space_group_symop_operation_xyz
  'x, y, z'

loop_
  _atom_site_type_symbol
  _atom_site_label
  _atom_site_symmetry_multiplicity
  _atom_site_fract_x
  _atom_site_fract_y
  _atom_site_fract_z
  _atom_site_occupancy
  Zn  Zn1       1.0  0.41102  0.64180  0.39130  1.0000
  Zn  Zn2       1.0  0.58898  0.35820  0.60870  1.0000
  Zn  Zn3       1.0  0.92423  0.12375  0.38273  1.0000
  Zn  Zn4       1.0  0.07576  0.87625  0.61727  1.0000
  P   P1        1.0  0.78339  0.51746  0.41269  1.0000
  P   P2        1.0  0.21661  0.48254  0.58730  1.0000
  P   P3        1.0  0.28378  0.02212  0.43075  1.0000
  P   P4        1.0  0.71622  0.97788  0.56925  1.0000
  H   H1        1.0  0.87566  0.73724  0.43968  1.0000
  H   H2        1.0  0.12434  0.26276  0.56032  1.0000
  H   H3        1.0  0.46014  0.17102  0.45912  1.0000
  H   H4        1.0  0.53986  0.82899  0.54088  1.0000
  H   H5        1.0  0.45377  0.39087  0.87760  1.0000
  H   H6        1.0  0.54624  0.60913  0.12240  1.0000
  H   H7        1.0  0.29128  0.53666  0.01586  1.0000
  H   H8        1.0  0.70872  0.46334  0.98414  1.0000
  H   H9        1.0  0.05026  0.12000  0.12276  1.0000
  H   H10       1.0  0.94974  0.88000  0.87724  1.0000
  H   H11       1.0  0.21470  0.97326  0.98526  1.0000
  H   H12       1.0  0.78529  0.02674  0.01473  1.0000
  H   H13       1.0  0.46774  0.18505  0.77563  1.0000
  H   H14       1.0  0.53225  0.81495  0.22437  1.0000
  H   H15       1.0  0.57908  0.01963  0.85572  1.0000
  H   H16       1.0  0.42091  0.98037  0.14428  1.0000
  H   H17       1.0  0.20871  0.14110  0.70645  1.0000
  H   H18       1.0  0.79128  0.85890  0.29355  1.0000
  H   H19       1.0  0.30363  0.61418  0.77248  1.0000
  H   H20       1.0  0.69637  0.38582  0.22752  1.0000
  H   H21       1.0  0.49660  0.73632  0.88184  1.0000
  H   H22       1.0  0.50340  0.26368  0.11816  1.0000
  H   H23       1.0  0.92668  0.48753  0.14662  1.0000
  H   H24       1.0  0.07333  0.51246  0.85339  1.0000
  H   H25       1.0  0.03788  0.32492  0.22698  1.0000
  H   H26       1.0  0.96214  0.67507  0.77302  1.0000
  H   H27       1.0  0.27899  0.38003  0.30770  1.0000
  H   H28       1.0  0.72102  0.61997  0.69230  1.0000
  H   H29       1.0  0.19140  0.90214  0.22406  1.0000
  H   H30       1.0  0.80859  0.09787  0.77594  1.0000
  H   H31       1.0  0.01665  0.76721  0.11100  1.0000
  H   H32       1.0  0.98334  0.23278  0.88900  1.0000
  C   C1        1.0  0.34594  0.17242  0.92218  1.0000
  C   C2        1.0  0.65405  0.82758  0.07781  1.0000
  C   C3        1.0  0.36610  0.33106  0.93210  1.0000
  C   C4        1.0  0.63389  0.66894  0.06790  1.0000
  C   C5        1.0  0.27440  0.41270  0.00980  1.0000
  C   C6        1.0  0.72560  0.58730  0.99020  1.0000
  C   C7        1.0  0.16036  0.33725  0.07935  1.0000
  C   C8        1.0  0.83964  0.66275  0.92064  1.0000
  C   C9        1.0  0.13925  0.17919  0.06888  1.0000
  C   C10       1.0  0.86075  0.82081  0.93112  1.0000
  C   C11       1.0  0.23134  0.09730  0.99141  1.0000
  C   C12       1.0  0.76865  0.90271  0.00858  1.0000
  C   C13       1.0  0.45006  0.08860  0.83772  1.0000
  C   C14       1.0  0.54994  0.91140  0.16228  1.0000
  C   C15       1.0  0.25458  0.01387  0.74129  1.0000
  C   C16       1.0  0.74542  0.98613  0.25871  1.0000
  C   C17       1.0  0.30589  0.74118  0.78022  1.0000
  C   C18       1.0  0.69411  0.25882  0.21979  1.0000
  C   C19       1.0  0.40390  0.79925  0.83205  1.0000
  C   C20       1.0  0.59610  0.20075  0.16796  1.0000
  C   C21       1.0  0.05654  0.41989  0.16435  1.0000
  C   C22       1.0  0.94347  0.58010  0.83565  1.0000
  C   C23       1.0  0.23830  0.50352  0.26706  1.0000
  C   C24       1.0  0.76171  0.49648  0.73294  1.0000
  C   C25       1.0  0.18976  0.77390  0.21994  1.0000
  C   C26       1.0  0.81024  0.22611  0.78007  1.0000
  C   C27       1.0  0.10201  0.70941  0.16547  1.0000
  C   C28       1.0  0.89799  0.29058  0.83453  1.0000
  N   N1        1.0  0.37025  0.97134  0.80616  1.0000
  N   N2        1.0  0.62974  0.02866  0.19385  1.0000
  N   N3        1.0  0.21219  0.87662  0.72493  1.0000
  N   N4        1.0  0.78781  0.12338  0.27507  1.0000
  N   N5        1.0  0.13393  0.53869  0.19623  1.0000
  N   N6        1.0  0.86607  0.46131  0.80377  1.0000
  N   N7        1.0  0.27535  0.64433  0.28204  1.0000
  N   N8        1.0  0.72465  0.35567  0.71796  1.0000
  O   O1        1.0  0.90119  0.65303  0.39407  1.0000
  O   O2        1.0  0.09881  0.34698  0.60593  1.0000
  O   O3        1.0  0.65700  0.56809  0.33446  1.0000
  O   O4        1.0  0.34300  0.43192  0.66554  1.0000
  O   O5        1.0  0.91341  0.35176  0.39830  1.0000
  O   O6        1.0  0.08659  0.64825  0.60170  1.0000
  O   O7        1.0  0.68139  0.52444  0.51429  1.0000
  O   O8        1.0  0.31861  0.47556  0.48570  1.0000
  O   O9        1.0  0.18155  0.04505  0.34449  1.0000
  O   O10       1.0  0.81845  0.95495  0.65551  1.0000
  O   O11       1.0  0.40035  0.15769  0.40499  1.0000
  O   O12       1.0  0.59965  0.84231  0.59501  1.0000
  O   O13       1.0  0.40593  0.84646  0.44663  1.0000
  O   O14       1.0  0.59407  0.15355  0.55337  1.0000
  O   O15       1.0  0.15972  0.05849  0.52522  1.0000
  O   O16       1.0  0.84028  0.94152  0.47478  1.0000
