data_image0
_chemical_formula_structural       Zn2P2H30C28N8O8
_chemical_formula_sum              "Zn2 P2 H30 C28 N8 O8"
_cell_length_a       8.5291
_cell_length_b       9.76647
_cell_length_c       10.5315
_cell_angle_alpha    82.4703
_cell_angle_beta     74.7835
_cell_angle_gamma    69.0141

_space_group_name_H-M_alt    "P 1"
_space_group_IT_number       1

loop_
  _space_group_symop_operation_xyz
  'x, y, z'

loop_
  _atom_site_type_symbol
  _atom_site_label
  _atom_site_symmetry_multiplicity
  _atom_site_fract_x
  _atom_site_fract_y
  _atom_site_fract_z
  _atom_site_occupancy
  Zn  Zn1       1.0  0.88252  0.56611  0.17304  1.0000
  Zn  Zn2       1.0  0.11748  0.43388  0.82696  1.0000
  P   P1        1.0  0.72352  0.52844  0.95497  1.0000
  P   P2        1.0  0.27648  0.47156  0.04503  1.0000
  H   H1        1.0  0.58552  0.36829  0.96072  1.0000
  H   H2        1.0  0.41448  0.63171  0.03928  1.0000
  H   H3        1.0  0.76544  0.21649  0.43745  1.0000
  H   H4        1.0  0.23456  0.78352  0.56255  1.0000
  H   H5        1.0  0.65257  0.01890  0.42617  1.0000
  H   H6        1.0  0.34743  0.98111  0.57382  1.0000
  H   H7        1.0  0.64744  0.83024  0.61182  1.0000
  H   H8        1.0  0.35256  0.16977  0.38817  1.0000
  H   H9        1.0  0.75546  0.84109  0.80346  1.0000
  H   H10       1.0  0.24454  0.15891  0.19653  1.0000
  H   H11       1.0  0.03530  0.00168  0.82030  1.0000
  H   H12       1.0  0.96470  0.99832  0.17970  1.0000
  H   H13       1.0  0.85186  0.15666  0.87557  1.0000
  H   H14       1.0  0.14814  0.84333  0.12443  1.0000
  H   H15       1.0  0.04346  0.74652  0.93547  1.0000
  H   H16       1.0  0.95655  0.25348  0.06452  1.0000
  H   H17       1.0  0.59076  0.88685  0.23839  1.0000
  H   H18       1.0  0.40925  0.11314  0.76161  1.0000
  H   H19       1.0  0.59654  0.12114  0.05729  1.0000
  H   H20       1.0  0.40345  0.87885  0.94271  1.0000
  H   H21       1.0  0.03795  0.22152  0.60616  1.0000
  H   H22       1.0  0.96205  0.77848  0.39384  1.0000
  H   H23       1.0  0.85563  0.30207  0.73498  1.0000
  H   H24       1.0  0.14437  0.69793  0.26503  1.0000
  H   H25       1.0  0.03363  0.33639  0.36952  1.0000
  H   H26       1.0  0.96636  0.66361  0.63048  1.0000
  H   H27       1.0  0.56869  0.69515  0.45173  1.0000
  H   H28       1.0  0.43131  0.30485  0.54827  1.0000
  H   H29       1.0  0.60099  0.51643  0.68084  1.0000
  H   H30       1.0  0.39901  0.48357  0.31917  1.0000
  C   C1        1.0  0.82248  0.03597  0.73096  1.0000
  C   C2        1.0  0.17752  0.96404  0.26903  1.0000
  C   C3        1.0  0.82484  0.14297  0.62713  1.0000
  C   C4        1.0  0.17516  0.85703  0.37287  1.0000
  C   C5        1.0  0.76378  0.13454  0.51835  1.0000
  C   C6        1.0  0.23622  0.86547  0.48164  1.0000
  C   C7        1.0  0.69987  0.02314  0.51179  1.0000
  C   C8        1.0  0.30013  0.97686  0.48820  1.0000
  C   C9        1.0  0.69696  0.91804  0.61502  1.0000
  C   C10       1.0  0.30304  0.08197  0.38497  1.0000
  C   C11       1.0  0.75839  0.92447  0.72383  1.0000
  C   C12       1.0  0.24161  0.07553  0.27616  1.0000
  C   C13       1.0  0.89294  0.04267  0.84694  1.0000
  C   C14       1.0  0.10706  0.95733  0.15306  1.0000
  C   C15       1.0  0.92211  0.81651  0.99401  1.0000
  C   C16       1.0  0.07789  0.18349  0.00598  1.0000
  C   C17       1.0  0.68729  0.89332  0.14963  1.0000
  C   C18       1.0  0.31272  0.10667  0.85037  1.0000
  C   C19       1.0  0.68775  0.00971  0.06105  1.0000
  C   C20       1.0  0.31225  0.99028  0.93895  1.0000
  C   C21       1.0  0.89600  0.26286  0.63449  1.0000
  C   C22       1.0  0.10400  0.73714  0.36551  1.0000
  C   C23       1.0  0.91134  0.41022  0.42180  1.0000
  C   C24       1.0  0.08866  0.58978  0.57820  1.0000
  C   C25       1.0  0.67038  0.59452  0.46873  1.0000
  C   C26       1.0  0.32962  0.40548  0.53128  1.0000
  C   C27       1.0  0.68258  0.50729  0.58184  1.0000
  C   C28       1.0  0.31742  0.49272  0.41816  1.0000
  N   N1        1.0  0.83781  0.95861  0.96381  1.0000
  N   N2        1.0  0.16218  0.04139  0.03619  1.0000
  N   N3        1.0  0.83382  0.77429  0.10718  1.0000
  N   N4        1.0  0.16619  0.22570  0.89281  1.0000
  N   N5        1.0  0.83576  0.39120  0.54966  1.0000
  N   N6        1.0  0.16424  0.60880  0.45034  1.0000
  N   N7        1.0  0.81380  0.53295  0.36984  1.0000
  N   N8        1.0  0.18620  0.46706  0.63017  1.0000
  O   O1        1.0  0.55979  0.66392  0.96458  1.0000
  O   O2        1.0  0.44021  0.33607  0.03543  1.0000
  O   O3        1.0  0.76855  0.47401  0.09087  1.0000
  O   O4        1.0  0.23145  0.52599  0.90913  1.0000
  O   O5        1.0  0.69727  0.39362  0.90316  1.0000
  O   O6        1.0  0.30273  0.60638  0.09685  1.0000
  O   O7        1.0  0.87516  0.55903  0.85239  1.0000
  O   O8        1.0  0.12484  0.44096  0.14762  1.0000
