data_image0
_chemical_formula_structural       V2Cd2P2H36C30N6O20
_chemical_formula_sum              "V2 Cd2 P2 H36 C30 N6 O20"
_cell_length_a       10.0056
_cell_length_b       11.7195
_cell_length_c       12.3071
_cell_angle_alpha    107.668
_cell_angle_beta     113.221
_cell_angle_gamma    101.367

_space_group_name_H-M_alt    "P 1"
_space_group_IT_number       1

loop_
  _space_group_symop_operation_xyz
  'x, y, z'

loop_
  _atom_site_type_symbol
  _atom_site_label
  _atom_site_symmetry_multiplicity
  _atom_site_fract_x
  _atom_site_fract_y
  _atom_site_fract_z
  _atom_site_occupancy
  V   V1        1.0  0.54084  0.16511  0.22030  1.0000
  V   V2        1.0  0.45916  0.83488  0.77970  1.0000
  Cd  Cd1       1.0  0.05466  0.29985  0.24822  1.0000
  Cd  Cd2       1.0  0.94534  0.70015  0.75178  1.0000
  P   P1        1.0  0.67548  0.12143  0.02358  1.0000
  P   P2        1.0  0.32452  0.87856  0.97641  1.0000
  H   H1        1.0  0.37743  0.35070  0.39678  1.0000
  H   H2        1.0  0.62257  0.64929  0.60322  1.0000
  H   H3        1.0  0.33291  0.39476  0.50976  1.0000
  H   H4        1.0  0.66709  0.60524  0.49024  1.0000
  H   H5        1.0  0.07816  0.38486  0.50804  1.0000
  H   H6        1.0  0.92184  0.61514  0.49196  1.0000
  H   H7        1.0  0.89584  0.34894  0.40161  1.0000
  H   H8        1.0  0.10416  0.65106  0.59840  1.0000
  H   H9        1.0  0.99001  0.91961  0.40306  1.0000
  H   H10       1.0  0.00999  0.08039  0.59694  1.0000
  H   H11       1.0  0.98284  0.12866  0.38828  1.0000
  H   H12       1.0  0.01716  0.87135  0.61173  1.0000
  H   H13       1.0  0.12223  0.05570  0.10684  1.0000
  H   H14       1.0  0.87777  0.94430  0.89316  1.0000
  H   H15       1.0  0.12501  0.84478  0.10195  1.0000
  H   H16       1.0  0.87499  0.15523  0.89805  1.0000
  H   H17       1.0  0.21076  0.81345  0.46687  1.0000
  H   H18       1.0  0.78924  0.18656  0.53313  1.0000
  H   H19       1.0  0.20696  0.59873  0.45699  1.0000
  H   H20       1.0  0.79304  0.40127  0.54301  1.0000
  H   H21       1.0  0.92085  0.42123  0.05619  1.0000
  H   H22       1.0  0.07915  0.57877  0.94381  1.0000
  H   H23       1.0  0.92160  0.63287  0.04583  1.0000
  H   H24       1.0  0.07841  0.36714  0.95417  1.0000
  H   H25       1.0  0.25383  0.15112  0.94641  1.0000
  H   H26       1.0  0.74617  0.84888  0.05360  1.0000
  H   H27       1.0  0.30210  0.31559  0.97441  1.0000
  H   H28       1.0  0.69790  0.68441  0.02560  1.0000
  H   H29       1.0  0.54690  0.45734  0.10583  1.0000
  H   H30       1.0  0.45310  0.54266  0.89418  1.0000
  H   H31       1.0  0.69503  0.39818  0.10016  1.0000
  H   H32       1.0  0.30497  0.60181  0.89984  1.0000
  H   H33       1.0  0.53561  0.22538  0.89518  1.0000
  H   H34       1.0  0.46439  0.77462  0.10482  1.0000
  H   H35       1.0  0.40883  0.08943  0.88840  1.0000
  H   H36       1.0  0.59117  0.91056  0.11160  1.0000
  C   C1        1.0  0.02084  0.94738  0.33671  1.0000
  C   C2        1.0  0.97917  0.05262  0.66329  1.0000
  C   C3        1.0  0.01653  0.06280  0.32942  1.0000
  C   C4        1.0  0.98347  0.93720  0.67058  1.0000
  C   C5        1.0  0.09114  0.02223  0.17002  1.0000
  C   C6        1.0  0.90886  0.97777  0.82999  1.0000
  C   C7        1.0  0.09414  0.90387  0.16873  1.0000
  C   C8        1.0  0.90586  0.09613  0.83127  1.0000
  C   C9        1.0  0.05982  0.86522  0.25466  1.0000
  C   C10       1.0  0.94018  0.13478  0.74534  1.0000
  C   C11       1.0  0.06205  0.74020  0.25624  1.0000
  C   C12       1.0  0.93795  0.25980  0.74376  1.0000
  C   C13       1.0  0.14233  0.72985  0.37290  1.0000
  C   C14       1.0  0.85767  0.27015  0.62709  1.0000
  C   C15       1.0  0.14137  0.60951  0.36829  1.0000
  C   C16       1.0  0.85863  0.39049  0.63171  1.0000
  C   C17       1.0  0.98424  0.51156  0.14382  1.0000
  C   C18       1.0  0.01576  0.48845  0.85618  1.0000
  C   C19       1.0  0.98368  0.62832  0.13903  1.0000
  C   C20       1.0  0.01632  0.37168  0.86097  1.0000
  C   C21       1.0  0.29834  0.27322  0.13255  1.0000
  C   C22       1.0  0.70166  0.72678  0.86745  1.0000
  C   C23       1.0  0.33264  0.24932  0.01909  1.0000
  C   C24       1.0  0.66736  0.75068  0.98091  1.0000
  C   C25       1.0  0.60408  0.39022  0.12941  1.0000
  C   C26       1.0  0.39592  0.60978  0.87059  1.0000
  C   C27       1.0  0.69293  0.43713  0.27724  1.0000
  C   C28       1.0  0.30707  0.56287  0.72276  1.0000
  C   C29       1.0  0.51435  0.17583  0.95331  1.0000
  C   C30       1.0  0.48565  0.82416  0.04669  1.0000
  N   N1        1.0  0.05268  0.10048  0.24811  1.0000
  N   N2        1.0  0.94732  0.89952  0.75189  1.0000
  N   N3        1.0  0.06145  0.50197  0.25635  1.0000
  N   N4        1.0  0.93855  0.49804  0.74365  1.0000
  N   N5        1.0  0.49354  0.25684  0.05902  1.0000
  N   N6        1.0  0.50646  0.74316  0.94098  1.0000
  O   O1        1.0  0.38502  0.25242  0.22879  1.0000
  O   O2        1.0  0.61498  0.74758  0.77122  1.0000
  O   O3        1.0  0.18439  0.30723  0.12371  1.0000
  O   O4        1.0  0.81561  0.69277  0.87629  1.0000
  O   O5        1.0  0.70072  0.35059  0.32166  1.0000
  O   O6        1.0  0.29929  0.64940  0.67835  1.0000
  O   O7        1.0  0.76045  0.55580  0.34685  1.0000
  O   O8        1.0  0.23955  0.44420  0.65315  1.0000
  O   O9        1.0  0.67379  0.11405  0.14685  1.0000
  O   O10       1.0  0.32621  0.88594  0.85315  1.0000
  O   O11       1.0  0.82699  0.22031  0.05773  1.0000
  O   O12       1.0  0.17301  0.77969  0.94226  1.0000
  O   O13       1.0  0.64334  0.98742  0.92429  1.0000
  O   O14       1.0  0.35666  0.01258  0.07571  1.0000
  O   O15       1.0  0.58600  0.12829  0.34273  1.0000
  O   O16       1.0  0.41401  0.87170  0.65727  1.0000
  O   O17       1.0  0.32050  0.39894  0.42844  1.0000
  O   O18       1.0  0.67950  0.60106  0.57156  1.0000
  O   O19       1.0  0.99239  0.33173  0.41613  1.0000
  O   O20       1.0  0.00761  0.66827  0.58387  1.0000
