data_image0
_chemical_formula_structural       Cu2H32C22S8N4Cl2
_chemical_formula_sum              "Cu2 H32 C22 S8 N4 Cl2"
_cell_length_a       8.82515
_cell_length_b       9.36229
_cell_length_c       10.1058
_cell_angle_alpha    68.617
_cell_angle_beta     73.1782
_cell_angle_gamma    89.1152

_space_group_name_H-M_alt    "P 1"
_space_group_IT_number       1

loop_
  _space_group_symop_operation_xyz
  'x, y, z'

loop_
  _atom_site_type_symbol
  _atom_site_label
  _atom_site_symmetry_multiplicity
  _atom_site_fract_x
  _atom_site_fract_y
  _atom_site_fract_z
  _atom_site_occupancy
  Cu  Cu1       1.0  0.83674  0.49510  0.53663  1.0000
  Cu  Cu2       1.0  0.16327  0.50490  0.46337  1.0000
  H   H1        1.0  0.76776  0.10898  0.59526  1.0000
  H   H2        1.0  0.23223  0.89102  0.40474  1.0000
  H   H3        1.0  0.86638  0.84574  0.67834  1.0000
  H   H4        1.0  0.13361  0.15425  0.32167  1.0000
  H   H5        1.0  0.93503  0.53561  0.20233  1.0000
  H   H6        1.0  0.06497  0.46438  0.79768  1.0000
  H   H7        1.0  0.95175  0.73924  0.15300  1.0000
  H   H8        1.0  0.04825  0.26076  0.84700  1.0000
  H   H9        1.0  0.64607  0.51827  0.26571  1.0000
  H   H10       1.0  0.35393  0.48173  0.73430  1.0000
  H   H11       1.0  0.64571  0.72073  0.17974  1.0000
  H   H12       1.0  0.35429  0.27926  0.82027  1.0000
  H   H13       1.0  0.77464  0.85432  0.45963  1.0000
  H   H14       1.0  0.22537  0.14569  0.54037  1.0000
  H   H15       1.0  0.85257  0.87584  0.26969  1.0000
  H   H16       1.0  0.14743  0.12416  0.73030  1.0000
  H   H17       1.0  0.57939  0.93644  0.23753  1.0000
  H   H18       1.0  0.42061  0.06356  0.76246  1.0000
  H   H19       1.0  0.51206  0.92900  0.42289  1.0000
  H   H20       1.0  0.48794  0.07100  0.57710  1.0000
  H   H21       1.0  0.78547  0.15377  0.16764  1.0000
  H   H22       1.0  0.21453  0.84624  0.83235  1.0000
  H   H23       1.0  0.72413  0.14837  0.35208  1.0000
  H   H24       1.0  0.27587  0.85163  0.64792  1.0000
  H   H25       1.0  0.52123  0.14252  0.05939  1.0000
  H   H26       1.0  0.47877  0.85748  0.94061  1.0000
  H   H27       1.0  0.41846  0.30951  0.03716  1.0000
  H   H28       1.0  0.58154  0.69050  0.96283  1.0000
  H   H29       1.0  0.78446  0.33573  0.94425  1.0000
  H   H30       1.0  0.21554  0.66426  0.05575  1.0000
  H   H31       1.0  0.66020  0.48175  0.88509  1.0000
  H   H32       1.0  0.33980  0.51826  0.11492  1.0000
  C   C1        1.0  0.76468  0.13659  0.80115  1.0000
  C   C2        1.0  0.23531  0.86342  0.19885  1.0000
  C   C3        1.0  0.79017  0.05777  0.70236  1.0000
  C   C4        1.0  0.20983  0.94222  0.29764  1.0000
  C   C5        1.0  0.84348  0.91452  0.74779  1.0000
  C   C6        1.0  0.15651  0.08550  0.25222  1.0000
  C   C7        1.0  0.86338  0.85603  0.89135  1.0000
  C   C8        1.0  0.13661  0.14396  0.10865  1.0000
  C   C9        1.0  0.88225  0.64197  0.15517  1.0000
  C   C10       1.0  0.11775  0.35803  0.84483  1.0000
  C   C11       1.0  0.70737  0.63028  0.24170  1.0000
  C   C12       1.0  0.29263  0.36972  0.75830  1.0000
  C   C13       1.0  0.74325  0.84775  0.36430  1.0000
  C   C14       1.0  0.25675  0.15225  0.63570  1.0000
  C   C15       1.0  0.61766  0.95576  0.32457  1.0000
  C   C16       1.0  0.38233  0.04424  0.67543  1.0000
  C   C17       1.0  0.68284  0.12463  0.26855  1.0000
  C   C18       1.0  0.31716  0.87537  0.73144  1.0000
  C   C19       1.0  0.53002  0.26236  0.05136  1.0000
  C   C20       1.0  0.46998  0.73764  0.94864  1.0000
  C   C21       1.0  0.67137  0.35764  0.91980  1.0000
  C   C22       1.0  0.32863  0.64236  0.08020  1.0000
  S   S1        1.0  0.68333  0.31504  0.75506  1.0000
  S   S2        1.0  0.31667  0.68497  0.24494  1.0000
  S   S3        1.0  0.90932  0.66530  0.96355  1.0000
  S   S4        1.0  0.09068  0.33470  0.03645  1.0000
  S   S5        1.0  0.67351  0.64522  0.42220  1.0000
  S   S6        1.0  0.32649  0.35478  0.57780  1.0000
  S   S7        1.0  0.53750  0.26164  0.22924  1.0000
  S   S8        1.0  0.46250  0.73836  0.77077  1.0000
  N   N1        1.0  0.79491  0.07979  0.93166  1.0000
  N   N2        1.0  0.20509  0.92021  0.06834  1.0000
  N   N3        1.0  0.84234  0.93843  0.97811  1.0000
  N   N4        1.0  0.15766  0.06157  0.02189  1.0000
  Cl  Cl1       1.0  0.00272  0.65122  0.58415  1.0000
  Cl  Cl2       1.0  0.99728  0.34879  0.41585  1.0000
