data_image0
_chemical_formula_structural       Cu2H32C34I2N8
_chemical_formula_sum              "Cu2 H32 C34 I2 N8"
_cell_length_a       8.52143
_cell_length_b       9.51419
_cell_length_c       10.6307
_cell_angle_alpha    85.2388
_cell_angle_beta     75.8833
_cell_angle_gamma    72.6788

_space_group_name_H-M_alt    "P 1"
_space_group_IT_number       1

loop_
  _space_group_symop_operation_xyz
  'x, y, z'

loop_
  _atom_site_type_symbol
  _atom_site_label
  _atom_site_symmetry_multiplicity
  _atom_site_fract_x
  _atom_site_fract_y
  _atom_site_fract_z
  _atom_site_occupancy
  Cu  Cu1       1.0  0.40879  0.45478  0.10953  1.0000
  Cu  Cu2       1.0  0.59121  0.54523  0.89047  1.0000
  H   H1        1.0  0.48024  0.58153  0.35992  1.0000
  H   H2        1.0  0.51976  0.41847  0.64007  1.0000
  H   H3        1.0  0.41580  0.69478  0.57999  1.0000
  H   H4        1.0  0.58421  0.30520  0.42001  1.0000
  H   H5        1.0  0.12042  0.79914  0.70042  1.0000
  H   H6        1.0  0.87959  0.20084  0.29958  1.0000
  H   H7        1.0  0.87969  0.79174  0.61308  1.0000
  H   H8        1.0  0.12033  0.20826  0.38692  1.0000
  H   H9        1.0  0.00381  0.55423  0.17635  1.0000
  H   H10       1.0  0.99618  0.44577  0.82365  1.0000
  H   H11       1.0  0.72990  0.66111  0.50506  1.0000
  H   H12       1.0  0.27011  0.33889  0.49494  1.0000
  H   H13       1.0  0.73164  0.60443  0.34989  1.0000
  H   H14       1.0  0.26836  0.39558  0.65011  1.0000
  H   H15       1.0  0.53003  0.85055  0.40579  1.0000
  H   H16       1.0  0.46996  0.14945  0.59422  1.0000
  H   H17       1.0  0.69375  0.92269  0.42120  1.0000
  H   H18       1.0  0.30625  0.07732  0.57880  1.0000
  H   H19       1.0  0.82325  0.89402  0.18763  1.0000
  H   H20       1.0  0.17675  0.10599  0.81237  1.0000
  H   H21       1.0  0.70079  0.77915  0.16996  1.0000
  H   H22       1.0  0.29921  0.22085  0.83004  1.0000
  H   H23       1.0  0.41803  0.77192  0.16764  1.0000
  H   H24       1.0  0.58197  0.22808  0.83236  1.0000
  H   H25       1.0  0.13859  0.84079  0.11381  1.0000
  H   H26       1.0  0.86141  0.15920  0.88620  1.0000
  H   H27       1.0  0.98801  0.10347  0.07498  1.0000
  H   H28       1.0  0.01198  0.89652  0.92502  1.0000
  H   H29       1.0  0.11612  0.30309  0.08700  1.0000
  H   H30       1.0  0.88387  0.69690  0.91300  1.0000
  H   H31       1.0  0.68498  0.17608  0.19141  1.0000
  H   H32       1.0  0.31501  0.82393  0.80858  1.0000
  C   C1        1.0  0.21561  0.62494  0.36452  1.0000
  C   C2        1.0  0.78438  0.37506  0.63547  1.0000
  C   C3        1.0  0.35121  0.62921  0.41471  1.0000
  C   C4        1.0  0.64880  0.37078  0.58528  1.0000
  C   C5        1.0  0.31363  0.69288  0.53576  1.0000
  C   C6        1.0  0.68638  0.30711  0.46424  1.0000
  C   C7        1.0  0.14561  0.75176  0.60530  1.0000
  C   C8        1.0  0.85441  0.24823  0.39469  1.0000
  C   C9        1.0  0.00887  0.74757  0.55737  1.0000
  C   C10       1.0  0.99114  0.25243  0.44263  1.0000
  C   C11       1.0  0.04724  0.68235  0.43651  1.0000
  C   C12       1.0  0.95277  0.31765  0.56348  1.0000
  C   C13       1.0  0.05153  0.58738  0.25174  1.0000
  C   C14       1.0  0.94847  0.41262  0.74826  1.0000
  C   C15       1.0  0.76329  0.68471  0.40058  1.0000
  C   C16       1.0  0.23671  0.31530  0.59942  1.0000
  C   C17       1.0  0.66511  0.84112  0.36952  1.0000
  C   C18       1.0  0.33489  0.15889  0.63048  1.0000
  C   C19       1.0  0.69956  0.87388  0.22347  1.0000
  C   C20       1.0  0.30044  0.12613  0.77653  1.0000
  C   C21       1.0  0.42022  0.00117  0.16330  1.0000
  C   C22       1.0  0.57978  0.99884  0.83671  1.0000
  C   C23       1.0  0.35142  0.88721  0.15480  1.0000
  C   C24       1.0  0.64858  0.11279  0.84521  1.0000
  C   C25       1.0  0.19430  0.92765  0.12334  1.0000
  C   C26       1.0  0.80570  0.07235  0.87667  1.0000
  C   C27       1.0  0.11032  0.07586  0.10048  1.0000
  C   C28       1.0  0.88967  0.92414  0.89953  1.0000
  C   C29       1.0  0.18050  0.18916  0.10725  1.0000
  C   C30       1.0  0.81950  0.81084  0.89275  1.0000
  C   C31       1.0  0.33793  0.15074  0.13908  1.0000
  C   C32       1.0  0.66207  0.84926  0.86092  1.0000
  C   C33       1.0  0.57740  0.14387  0.17954  1.0000
  C   C34       1.0  0.42260  0.85613  0.82046  1.0000
  I   I1        1.0  0.71584  0.47434  0.10094  1.0000
  I   I2        1.0  0.28416  0.52566  0.89905  1.0000
  N   N1        1.0  0.21360  0.56766  0.24858  1.0000
  N   N2        1.0  0.78639  0.43234  0.75142  1.0000
  N   N3        1.0  0.94629  0.65553  0.36240  1.0000
  N   N4        1.0  0.05371  0.34448  0.63761  1.0000
  N   N5        1.0  0.57245  0.00127  0.18897  1.0000
  N   N6        1.0  0.42755  0.99874  0.81103  1.0000
  N   N7        1.0  0.44091  0.23690  0.14959  1.0000
  N   N8        1.0  0.55909  0.76310  0.85041  1.0000
