data_image0
_chemical_formula_structural       Cu2H12C6S6Cl4
_chemical_formula_sum              "Cu2 H12 C6 S6 Cl4"
_cell_length_a       4.14715
_cell_length_b       6.75632
_cell_length_c       14.0336
_cell_angle_alpha    89.9905
_cell_angle_beta     90.0163
_cell_angle_gamma    97.3494

_space_group_name_H-M_alt    "P 1"
_space_group_IT_number       1

loop_
  _space_group_symop_operation_xyz
  'x, y, z'

loop_
  _atom_site_type_symbol
  _atom_site_label
  _atom_site_symmetry_multiplicity
  _atom_site_fract_x
  _atom_site_fract_y
  _atom_site_fract_z
  _atom_site_occupancy
  Cu  Cu1       1.0  1.00000  0.50000  0.50000  1.0000
  Cu  Cu2       1.0  0.00001  0.50000  0.00000  1.0000
  H   H1        1.0  0.97972  0.64515  0.24999  1.0000
  H   H2        1.0  0.02028  0.35485  0.75000  1.0000
  H   H3        1.0  0.26760  0.46623  0.25002  1.0000
  H   H4        1.0  0.73241  0.53378  0.74997  1.0000
  H   H5        1.0  0.84722  0.05093  0.41339  1.0000
  H   H6        1.0  0.15281  0.94910  0.91331  1.0000
  H   H7        1.0  0.15278  0.94908  0.58662  1.0000
  H   H8        1.0  0.84720  0.05088  0.08669  1.0000
  H   H9        1.0  0.19578  0.14000  0.34248  1.0000
  H   H10       1.0  0.80423  0.85999  0.84236  1.0000
  H   H11       1.0  0.80424  0.86000  0.65752  1.0000
  H   H12       1.0  0.19577  0.14000  0.15764  1.0000
  C   C1        1.0  0.00971  0.48577  0.25000  1.0000
  C   C2        1.0  0.99029  0.51423  0.75000  1.0000
  C   C3        1.0  0.92987  0.12585  0.34681  1.0000
  C   C4        1.0  0.07015  0.87418  0.84674  1.0000
  C   C5        1.0  0.07011  0.87415  0.65319  1.0000
  C   C6        1.0  0.92985  0.12582  0.15326  1.0000
  S   S1        1.0  0.79991  0.37312  0.35299  1.0000
  S   S2        1.0  0.20011  0.62690  0.85300  1.0000
  S   S3        1.0  0.20009  0.62687  0.64701  1.0000
  S   S4        1.0  0.79989  0.37311  0.14701  1.0000
  S   S5        1.0  0.74321  0.97885  0.25004  1.0000
  S   S6        1.0  0.25680  0.02115  0.74996  1.0000
  Cl  Cl1       1.0  0.36739  0.73341  0.43955  1.0000
  Cl  Cl2       1.0  0.63269  0.26657  0.93951  1.0000
  Cl  Cl3       1.0  0.63260  0.26660  0.56045  1.0000
  Cl  Cl4       1.0  0.36733  0.73342  0.06049  1.0000
