data_image0
_chemical_formula_structural       Ag6H16C24N6O14
_chemical_formula_sum              "Ag6 H16 C24 N6 O14"
_cell_length_a       8.10956
_cell_length_b       10.4284
_cell_length_c       10.6976
_cell_angle_alpha    63.4355
_cell_angle_beta     69.1133
_cell_angle_gamma    81.4978

_space_group_name_H-M_alt    "P 1"
_space_group_IT_number       1

loop_
  _space_group_symop_operation_xyz
  'x, y, z'

loop_
  _atom_site_type_symbol
  _atom_site_label
  _atom_site_symmetry_multiplicity
  _atom_site_fract_x
  _atom_site_fract_y
  _atom_site_fract_z
  _atom_site_occupancy
  Ag  Ag1       1.0  0.63610  0.61540  0.49122  1.0000
  Ag  Ag2       1.0  0.36390  0.38459  0.50878  1.0000
  Ag  Ag3       1.0  0.01534  0.36531  0.48270  1.0000
  Ag  Ag4       1.0  0.98466  0.63469  0.51730  1.0000
  Ag  Ag5       1.0  0.24449  0.11720  0.50098  1.0000
  Ag  Ag6       1.0  0.75550  0.88280  0.49902  1.0000
  H   H1        1.0  0.66003  0.35476  0.76469  1.0000
  H   H2        1.0  0.33997  0.64524  0.23531  1.0000
  H   H3        1.0  0.51666  0.25542  0.04058  1.0000
  H   H4        1.0  0.48334  0.74458  0.95942  1.0000
  H   H5        1.0  0.13062  0.58629  0.97404  1.0000
  H   H6        1.0  0.86938  0.41370  0.02596  1.0000
  H   H7        1.0  0.28812  0.67696  0.70268  1.0000
  H   H8        1.0  0.71188  0.32304  0.29732  1.0000
  H   H9        1.0  0.38234  0.01577  0.76609  1.0000
  H   H10       1.0  0.61766  0.98424  0.23391  1.0000
  H   H11       1.0  0.27093  0.87279  0.04362  1.0000
  H   H12       1.0  0.72907  0.12722  0.95638  1.0000
  H   H13       1.0  0.79603  0.78660  0.00259  1.0000
  H   H14       1.0  0.20397  0.21340  0.99741  1.0000
  H   H15       1.0  0.92334  0.93319  0.72753  1.0000
  H   H16       1.0  0.07666  0.06681  0.27247  1.0000
  C   C1        1.0  0.54227  0.40290  0.81482  1.0000
  C   C2        1.0  0.45773  0.59709  0.18517  1.0000
  C   C3        1.0  0.46256  0.34765  0.96721  1.0000
  C   C4        1.0  0.53744  0.65234  0.03279  1.0000
  C   C5        1.0  0.02634  0.81548  0.04347  1.0000
  C   C6        1.0  0.97366  0.18452  0.95653  1.0000
  C   C7        1.0  0.24727  0.53232  0.93175  1.0000
  C   C8        1.0  0.75273  0.46768  0.06825  1.0000
  C   C9        1.0  0.33474  0.58284  0.78018  1.0000
  C   C10       1.0  0.66526  0.41716  0.21982  1.0000
  C   C11       1.0  0.95234  0.73351  0.20901  1.0000
  C   C12       1.0  0.04767  0.26649  0.79099  1.0000
  C   C13       1.0  0.25387  0.96183  0.82360  1.0000
  C   C14       1.0  0.74613  0.03817  0.17640  1.0000
  C   C15       1.0  0.19274  0.88125  0.97618  1.0000
  C   C16       1.0  0.80727  0.11876  0.02382  1.0000
  C   C17       1.0  0.31361  0.41340  0.02829  1.0000
  C   C18       1.0  0.68639  0.58660  0.97171  1.0000
  C   C19       1.0  0.92744  0.83388  0.95325  1.0000
  C   C20       1.0  0.07256  0.16612  0.04675  1.0000
  C   C21       1.0  0.99689  0.91556  0.80139  1.0000
  C   C22       1.0  0.00310  0.08444  0.19862  1.0000
  C   C23       1.0  0.23415  0.35657  0.19424  1.0000
  C   C24       1.0  0.76585  0.64343  0.80576  1.0000
  N   N1        1.0  0.48082  0.52067  0.72202  1.0000
  N   N2        1.0  0.51918  0.47932  0.27798  1.0000
  N   N3        1.0  0.15748  0.97972  0.73724  1.0000
  N   N4        1.0  0.84252  0.02028  0.26276  1.0000
  N   N5        1.0  0.70510  0.16816  0.54800  1.0000
  N   N6        1.0  0.29490  0.83184  0.45200  1.0000
  O   O1        1.0  0.79126  0.69465  0.26172  1.0000
  O   O2        1.0  0.20874  0.30535  0.73828  1.0000
  O   O3        1.0  0.05762  0.71556  0.27918  1.0000
  O   O4        1.0  0.94238  0.28445  0.72082  1.0000
  O   O5        1.0  0.10572  0.42503  0.24514  1.0000
  O   O6        1.0  0.89428  0.57497  0.75486  1.0000
  O   O7        1.0  0.30802  0.24570  0.26648  1.0000
  O   O8        1.0  0.69198  0.75430  0.73352  1.0000
  O   O9        1.0  0.67733  0.28557  0.56142  1.0000
  O   O10       1.0  0.32267  0.71443  0.43858  1.0000
  O   O11       1.0  0.85758  0.11441  0.52984  1.0000
  O   O12       1.0  0.14242  0.88559  0.47016  1.0000
  O   O13       1.0  0.57973  0.10627  0.54988  1.0000
  O   O14       1.0  0.42027  0.89373  0.45012  1.0000
