data_image0
_chemical_formula_structural       Cd4H40C20N8O24
_chemical_formula_sum              "Cd4 H40 C20 N8 O24"
_cell_length_a       8.67996
_cell_length_b       8.85222
_cell_length_c       13.47
_cell_angle_alpha    72.4003
_cell_angle_beta     86.2052
_cell_angle_gamma    89.4993

_space_group_name_H-M_alt    "P 1"
_space_group_IT_number       1

loop_
  _space_group_symop_operation_xyz
  'x, y, z'

loop_
  _atom_site_type_symbol
  _atom_site_label
  _atom_site_symmetry_multiplicity
  _atom_site_fract_x
  _atom_site_fract_y
  _atom_site_fract_z
  _atom_site_occupancy
  Cd  Cd1       1.0  0.07462  0.72942  0.66986  1.0000
  Cd  Cd2       1.0  0.92539  0.27058  0.33014  1.0000
  Cd  Cd3       1.0  0.61083  0.76512  0.32682  1.0000
  Cd  Cd4       1.0  0.38917  0.23488  0.67318  1.0000
  H   H1        1.0  0.35107  0.68912  0.51887  1.0000
  H   H2        1.0  0.64893  0.31089  0.48112  1.0000
  H   H3        1.0  0.50686  0.85378  0.73737  1.0000
  H   H4        1.0  0.49314  0.14623  0.26263  1.0000
  H   H5        1.0  0.85299  0.80521  0.47664  1.0000
  H   H6        1.0  0.14702  0.19479  0.52336  1.0000
  H   H7        1.0  0.94796  0.35243  0.74784  1.0000
  H   H8        1.0  0.05204  0.64757  0.25217  1.0000
  H   H9        1.0  0.68601  0.52794  0.93832  1.0000
  H   H10       1.0  0.31399  0.47206  0.06168  1.0000
  H   H11       1.0  0.54519  0.63043  0.99585  1.0000
  H   H12       1.0  0.45481  0.36958  0.00415  1.0000
  H   H13       1.0  0.73343  0.50032  0.12565  1.0000
  H   H14       1.0  0.26657  0.49968  0.87435  1.0000
  H   H15       1.0  0.75318  0.70960  0.09316  1.0000
  H   H16       1.0  0.24682  0.29040  0.90684  1.0000
  H   H17       1.0  0.89042  0.59757  0.03973  1.0000
  H   H18       1.0  0.10958  0.40243  0.96027  1.0000
  H   H19       1.0  0.04758  0.03244  0.70279  1.0000
  H   H20       1.0  0.95242  0.96756  0.29721  1.0000
  H   H21       1.0  0.92452  0.02956  0.61320  1.0000
  H   H22       1.0  0.07548  0.97045  0.38680  1.0000
  H   H23       1.0  0.75142  0.00871  0.74026  1.0000
  H   H24       1.0  0.24858  0.99129  0.25974  1.0000
  H   H25       1.0  0.26678  0.98344  0.04940  1.0000
  H   H26       1.0  0.73321  0.01656  0.95060  1.0000
  H   H27       1.0  0.39293  0.90229  0.97028  1.0000
  H   H28       1.0  0.60707  0.09772  0.02972  1.0000
  H   H29       1.0  0.14389  0.98798  0.88491  1.0000
  H   H30       1.0  0.85611  0.01200  0.11508  1.0000
  H   H31       1.0  0.16459  0.77890  0.91496  1.0000
  H   H32       1.0  0.83543  0.22109  0.08504  1.0000
  H   H33       1.0  0.03814  0.85897  0.99524  1.0000
  H   H34       1.0  0.96185  0.14101  0.00475  1.0000
  H   H35       1.0  0.43689  0.47615  0.38382  1.0000
  H   H36       1.0  0.56311  0.52385  0.61618  1.0000
  H   H37       1.0  0.57672  0.45960  0.29690  1.0000
  H   H38       1.0  0.42328  0.54040  0.70310  1.0000
  H   H39       1.0  0.29328  0.50259  0.25192  1.0000
  H   H40       1.0  0.70672  0.49741  0.74808  1.0000
  C   C1        1.0  0.28910  0.78282  0.46189  1.0000
  C   C2        1.0  0.71090  0.21719  0.53811  1.0000
  C   C3        1.0  0.38721  0.85463  0.71300  1.0000
  C   C4        1.0  0.61279  0.14537  0.28701  1.0000
  C   C5        1.0  0.78178  0.71132  0.53415  1.0000
  C   C6        1.0  0.21822  0.28868  0.46585  1.0000
  C   C7        1.0  0.07092  0.35005  0.72045  1.0000
  C   C8        1.0  0.92908  0.64995  0.27956  1.0000
  C   C9        1.0  0.82498  0.78550  0.82768  1.0000
  C   C10       1.0  0.17502  0.21450  0.17232  1.0000
  C   C11       1.0  0.66796  0.62505  0.97250  1.0000
  C   C12       1.0  0.33204  0.37495  0.02750  1.0000
  C   C13       1.0  0.76825  0.60835  0.06266  1.0000
  C   C14       1.0  0.23174  0.39165  0.93734  1.0000
  C   C15       1.0  0.39509  0.71957  0.16476  1.0000
  C   C16       1.0  0.60491  0.28043  0.83523  1.0000
  C   C17       1.0  0.28030  0.88655  0.01458  1.0000
  C   C18       1.0  0.71970  0.11345  0.98542  1.0000
  C   C19       1.0  0.14899  0.87665  0.94886  1.0000
  C   C20       1.0  0.85101  0.12334  0.05114  1.0000
  N   N1        1.0  0.96754  0.96251  0.68332  1.0000
  N   N2        1.0  0.03246  0.03750  0.31668  1.0000
  N   N3        1.0  0.84312  0.93326  0.75962  1.0000
  N   N4        1.0  0.15688  0.06674  0.24038  1.0000
  N   N5        1.0  0.49692  0.53725  0.31373  1.0000
  N   N6        1.0  0.50308  0.46275  0.68627  1.0000
  N   N7        1.0  0.39057  0.57311  0.23552  1.0000
  N   N8        1.0  0.60943  0.42690  0.76448  1.0000
  O   O1        1.0  0.16204  0.83050  0.49432  1.0000
  O   O2        1.0  0.83796  0.16950  0.50568  1.0000
  O   O3        1.0  0.34868  0.83465  0.36940  1.0000
  O   O4        1.0  0.65132  0.16535  0.63061  1.0000
  O   O5        1.0  0.32402  0.72001  0.72607  1.0000
  O   O6        1.0  0.67598  0.27999  0.27393  1.0000
  O   O7        1.0  0.32211  0.98555  0.67495  1.0000
  O   O8        1.0  0.67790  0.01445  0.32505  1.0000
  O   O9        1.0  0.82373  0.66058  0.62650  1.0000
  O   O10       1.0  0.17628  0.33942  0.37350  1.0000
  O   O11       1.0  0.66229  0.66237  0.50234  1.0000
  O   O12       1.0  0.33771  0.33762  0.49766  1.0000
  O   O13       1.0  0.13150  0.21426  0.73529  1.0000
  O   O14       1.0  0.86850  0.78574  0.26471  1.0000
  O   O15       1.0  0.14315  0.47900  0.67728  1.0000
  O   O16       1.0  0.85685  0.52100  0.32272  1.0000
  O   O17       1.0  0.91683  0.67459  0.83447  1.0000
  O   O18       1.0  0.08317  0.32541  0.16553  1.0000
  O   O19       1.0  0.69453  0.77530  0.88975  1.0000
  O   O20       1.0  0.30547  0.22470  0.11025  1.0000
  O   O21       1.0  0.28065  0.73643  0.09957  1.0000
  O   O22       1.0  0.71934  0.26357  0.90043  1.0000
  O   O23       1.0  0.49446  0.82348  0.15810  1.0000
  O   O24       1.0  0.50554  0.17652  0.84190  1.0000
