data_image0
_chemical_formula_structural       Zn4H40C20N8O24
_chemical_formula_sum              "Zn4 H40 C20 N8 O24"
_cell_length_a       8.20286
_cell_length_b       8.68633
_cell_length_c       13.2808
_cell_angle_alpha    73.5378
_cell_angle_beta     86.5737
_cell_angle_gamma    89.5699

_space_group_name_H-M_alt    "P 1"
_space_group_IT_number       1

loop_
  _space_group_symop_operation_xyz
  'x, y, z'

loop_
  _atom_site_type_symbol
  _atom_site_label
  _atom_site_symmetry_multiplicity
  _atom_site_fract_x
  _atom_site_fract_y
  _atom_site_fract_z
  _atom_site_occupancy
  Zn  Zn1       1.0  0.06514  0.72301  0.66177  1.0000
  Zn  Zn2       1.0  0.93487  0.27698  0.33822  1.0000
  Zn  Zn3       1.0  0.59775  0.77393  0.33462  1.0000
  Zn  Zn4       1.0  0.40225  0.22607  0.66538  1.0000
  H   H1        1.0  0.33770  0.67209  0.51804  1.0000
  H   H2        1.0  0.66230  0.32791  0.48196  1.0000
  H   H3        1.0  0.51074  0.84928  0.73575  1.0000
  H   H4        1.0  0.48926  0.15072  0.26424  1.0000
  H   H5        1.0  0.83912  0.82447  0.47737  1.0000
  H   H6        1.0  0.16088  0.17553  0.52263  1.0000
  H   H7        1.0  0.94961  0.35377  0.74318  1.0000
  H   H8        1.0  0.05039  0.64623  0.25682  1.0000
  H   H9        1.0  0.69075  0.52372  0.93628  1.0000
  H   H10       1.0  0.30924  0.47629  0.06372  1.0000
  H   H11       1.0  0.54258  0.63076  0.99375  1.0000
  H   H12       1.0  0.45741  0.36925  0.00625  1.0000
  H   H13       1.0  0.73958  0.49559  0.12623  1.0000
  H   H14       1.0  0.26041  0.50441  0.87376  1.0000
  H   H15       1.0  0.76050  0.70784  0.09637  1.0000
  H   H16       1.0  0.23950  0.29215  0.90364  1.0000
  H   H17       1.0  0.90643  0.59363  0.04237  1.0000
  H   H18       1.0  0.09357  0.40636  0.95763  1.0000
  H   H19       1.0  0.07858  0.00765  0.69074  1.0000
  H   H20       1.0  0.92142  0.99235  0.30926  1.0000
  H   H21       1.0  0.93551  0.01555  0.60556  1.0000
  H   H22       1.0  0.06449  0.98445  0.39444  1.0000
  H   H23       1.0  0.76374  0.00757  0.73776  1.0000
  H   H24       1.0  0.23626  0.99244  0.26224  1.0000
  H   H25       1.0  0.27483  0.99000  0.04838  1.0000
  H   H26       1.0  0.72517  0.01000  0.95162  1.0000
  H   H27       1.0  0.41063  0.90346  0.97085  1.0000
  H   H28       1.0  0.58937  0.09654  0.02915  1.0000
  H   H29       1.0  0.15355  0.99161  0.87893  1.0000
  H   H30       1.0  0.84645  0.00839  0.12107  1.0000
  H   H31       1.0  0.17184  0.77907  0.90997  1.0000
  H   H32       1.0  0.82816  0.22092  0.09004  1.0000
  H   H33       1.0  0.03555  0.86590  0.98765  1.0000
  H   H34       1.0  0.96445  0.13410  0.01235  1.0000
  H   H35       1.0  0.44592  0.48805  0.39080  1.0000
  H   H36       1.0  0.55408  0.51195  0.60920  1.0000
  H   H37       1.0  0.60277  0.48342  0.30681  1.0000
  H   H38       1.0  0.39723  0.51658  0.69319  1.0000
  H   H39       1.0  0.30168  0.50272  0.25401  1.0000
  H   H40       1.0  0.69832  0.49727  0.74599  1.0000
  C   C1        1.0  0.27738  0.77541  0.46539  1.0000
  C   C2        1.0  0.72262  0.22459  0.53461  1.0000
  C   C3        1.0  0.38550  0.86088  0.70768  1.0000
  C   C4        1.0  0.61450  0.13912  0.29232  1.0000
  C   C5        1.0  0.76994  0.72193  0.53065  1.0000
  C   C6        1.0  0.23006  0.27807  0.46935  1.0000
  C   C7        1.0  0.07792  0.36221  0.71082  1.0000
  C   C8        1.0  0.92208  0.63779  0.28918  1.0000
  C   C9        1.0  0.83497  0.77826  0.82289  1.0000
  C   C10       1.0  0.16502  0.22174  0.17711  1.0000
  C   C11       1.0  0.67245  0.62274  0.97165  1.0000
  C   C12       1.0  0.32755  0.37726  0.02835  1.0000
  C   C13       1.0  0.77678  0.60518  0.06411  1.0000
  C   C14       1.0  0.22322  0.39483  0.93589  1.0000
  C   C15       1.0  0.40087  0.72751  0.17008  1.0000
  C   C16       1.0  0.59913  0.27249  0.82992  1.0000
  C   C17       1.0  0.29031  0.89018  0.01343  1.0000
  C   C18       1.0  0.70968  0.10982  0.98657  1.0000
  C   C19       1.0  0.15475  0.88008  0.94376  1.0000
  C   C20       1.0  0.84525  0.11992  0.05624  1.0000
  N   N1        1.0  0.98183  0.94490  0.67482  1.0000
  N   N2        1.0  0.01816  0.05510  0.32518  1.0000
  N   N3        1.0  0.85782  0.92723  0.75555  1.0000
  N   N4        1.0  0.14218  0.07277  0.24445  1.0000
  N   N5        1.0  0.50798  0.55419  0.32160  1.0000
  N   N6        1.0  0.49202  0.44581  0.67840  1.0000
  N   N7        1.0  0.40051  0.57910  0.23966  1.0000
  N   N8        1.0  0.59949  0.42089  0.76034  1.0000
  O   O1        1.0  0.14597  0.82531  0.50130  1.0000
  O   O2        1.0  0.85404  0.17470  0.49870  1.0000
  O   O3        1.0  0.34230  0.83600  0.37380  1.0000
  O   O4        1.0  0.65770  0.16400  0.62619  1.0000
  O   O5        1.0  0.30683  0.73170  0.71787  1.0000
  O   O6        1.0  0.69317  0.26831  0.28213  1.0000
  O   O7        1.0  0.33035  0.00034  0.66832  1.0000
  O   O8        1.0  0.66965  0.99967  0.33168  1.0000
  O   O9        1.0  0.81830  0.66216  0.62216  1.0000
  O   O10       1.0  0.18170  0.33784  0.37784  1.0000
  O   O11       1.0  0.64554  0.67209  0.49535  1.0000
  O   O12       1.0  0.35446  0.32791  0.50465  1.0000
  O   O13       1.0  0.15403  0.23143  0.72238  1.0000
  O   O14       1.0  0.84597  0.76857  0.27762  1.0000
  O   O15       1.0  0.13936  0.49962  0.66550  1.0000
  O   O16       1.0  0.86064  0.50038  0.33450  1.0000
  O   O17       1.0  0.92507  0.66198  0.82389  1.0000
  O   O18       1.0  0.07492  0.33801  0.17612  1.0000
  O   O19       1.0  0.70425  0.77412  0.88994  1.0000
  O   O20       1.0  0.29575  0.22589  0.11006  1.0000
  O   O21       1.0  0.28760  0.73952  0.09919  1.0000
  O   O22       1.0  0.71240  0.26048  0.90081  1.0000
  O   O23       1.0  0.49826  0.83686  0.17019  1.0000
  O   O24       1.0  0.50174  0.16314  0.82981  1.0000
