data_image0
_chemical_formula_structural       Co2H30C22N2O18
_chemical_formula_sum              "Co2 H30 C22 N2 O18"
_cell_length_a       6.99373
_cell_length_b       10.3698
_cell_length_c       10.5008
_cell_angle_alpha    110.512
_cell_angle_beta     102.032
_cell_angle_gamma    91.111

_space_group_name_H-M_alt    "P 1"
_space_group_IT_number       1

loop_
  _space_group_symop_operation_xyz
  'x, y, z'

loop_
  _atom_site_type_symbol
  _atom_site_label
  _atom_site_symmetry_multiplicity
  _atom_site_fract_x
  _atom_site_fract_y
  _atom_site_fract_z
  _atom_site_occupancy
  Co  Co1       1.0  0.50000  0.00000  0.50000  1.0000
  Co  Co2       1.0  0.50001  0.50000  0.00000  1.0000
  H   H1        1.0  0.65839  0.67763  0.58354  1.0000
  H   H2        1.0  0.34160  0.32237  0.41646  1.0000
  H   H3        1.0  0.82541  0.15894  0.50008  1.0000
  H   H4        1.0  0.17458  0.84106  0.49992  1.0000
  H   H5        1.0  0.76567  0.18649  0.65259  1.0000
  H   H6        1.0  0.23432  0.81350  0.34741  1.0000
  H   H7        1.0  0.20128  0.16266  0.53202  1.0000
  H   H8        1.0  0.79871  0.83734  0.46798  1.0000
  H   H9        1.0  0.33906  0.19761  0.68975  1.0000
  H   H10       1.0  0.66093  0.80239  0.31025  1.0000
  H   H11       1.0  0.21526  0.65973  0.08586  1.0000
  H   H12       1.0  0.78475  0.34026  0.91414  1.0000
  H   H13       1.0  0.15497  0.50129  0.06095  1.0000
  H   H14       1.0  0.84496  0.49870  0.93899  1.0000
  H   H15       1.0  0.40201  0.15945  0.17075  1.0000
  H   H16       1.0  0.59800  0.84054  0.82925  1.0000
  H   H17       1.0  0.17161  0.04755  0.72804  1.0000
  H   H18       1.0  0.82840  0.95246  0.27197  1.0000
  H   H19       1.0  0.08423  0.76029  0.92630  1.0000
  H   H20       1.0  0.91576  0.23971  0.07370  1.0000
  H   H21       1.0  0.55111  0.27399  0.50519  1.0000
  H   H22       1.0  0.44889  0.72602  0.49481  1.0000
  H   H23       1.0  0.61689  0.32894  0.31177  1.0000
  H   H24       1.0  0.38311  0.67107  0.68823  1.0000
  H   H25       1.0  0.76268  0.43687  0.47888  1.0000
  H   H26       1.0  0.23730  0.56314  0.52111  1.0000
  H   H27       1.0  0.61157  0.49359  0.68825  1.0000
  H   H28       1.0  0.38843  0.50642  0.31174  1.0000
  H   H29       1.0  0.36800  0.41992  0.66099  1.0000
  H   H30       1.0  0.63200  0.58009  0.33901  1.0000
  C   C1        1.0  0.25207  0.95521  0.06282  1.0000
  C   C2        1.0  0.74794  0.04479  0.93718  1.0000
  C   C3        1.0  0.32423  0.08501  0.07035  1.0000
  C   C4        1.0  0.67578  0.91499  0.92966  1.0000
  C   C5        1.0  0.29673  0.11957  0.95115  1.0000
  C   C6        1.0  0.70329  0.88043  0.04886  1.0000
  C   C7        1.0  0.19642  0.02248  0.82206  1.0000
  C   C8        1.0  0.80359  0.97753  0.17795  1.0000
  C   C9        1.0  0.12012  0.89348  0.81369  1.0000
  C   C10       1.0  0.87989  0.10652  0.18631  1.0000
  C   C11       1.0  0.14779  0.86018  0.93423  1.0000
  C   C12       1.0  0.85221  0.13982  0.06577  1.0000
  C   C13       1.0  0.28393  0.92405  0.19434  1.0000
  C   C14       1.0  0.71606  0.07594  0.80566  1.0000
  C   C15       1.0  0.37322  0.25931  0.96474  1.0000
  C   C16       1.0  0.62681  0.74069  0.03527  1.0000
  C   C17       1.0  0.98985  0.79806  0.67878  1.0000
  C   C18       1.0  0.01015  0.20195  0.32122  1.0000
  C   C19       1.0  0.61379  0.41050  0.41135  1.0000
  C   C20       1.0  0.38620  0.58950  0.58865  1.0000
  C   C21       1.0  0.46676  0.46466  0.61570  1.0000
  C   C22       1.0  0.53324  0.53534  0.38429  1.0000
  N   N1        1.0  0.48614  0.35656  0.48254  1.0000
  N   N2        1.0  0.51385  0.64344  0.51746  1.0000
  O   O1        1.0  0.38470  0.01588  0.30498  1.0000
  O   O2        1.0  0.61528  0.98411  0.69502  1.0000
  O   O3        1.0  0.20696  0.80831  0.18998  1.0000
  O   O4        1.0  0.79303  0.19168  0.81002  1.0000
  O   O5        1.0  0.45226  0.34917  0.08525  1.0000
  O   O6        1.0  0.54780  0.65082  0.91475  1.0000
  O   O7        1.0  0.36177  0.29488  0.85773  1.0000
  O   O8        1.0  0.63823  0.70513  0.14228  1.0000
  O   O9        1.0  0.99463  0.82150  0.56703  1.0000
  O   O10       1.0  0.00536  0.17852  0.43297  1.0000
  O   O11       1.0  0.87676  0.70391  0.68352  1.0000
  O   O12       1.0  0.12323  0.29610  0.31647  1.0000
  O   O13       1.0  0.71425  0.16689  0.54912  1.0000
  O   O14       1.0  0.28574  0.83311  0.45088  1.0000
  O   O15       1.0  0.32909  0.14799  0.58795  1.0000
  O   O16       1.0  0.67090  0.85202  0.41205  1.0000
  O   O17       1.0  0.22151  0.55934  0.02446  1.0000
  O   O18       1.0  0.77852  0.44066  0.97554  1.0000
