data_image0
_chemical_formula_structural       MnH20C26S2N8O6F6
_chemical_formula_sum              "Mn1 H20 C26 S2 N8 O6 F6"
_cell_length_a       9.86867
_cell_length_b       9.48394
_cell_length_c       12.2017
_cell_angle_alpha    109.885
_cell_angle_beta     104.691
_cell_angle_gamma    91.7998

_space_group_name_H-M_alt    "P 1"
_space_group_IT_number       1

loop_
  _space_group_symop_operation_xyz
  'x, y, z'

loop_
  _atom_site_type_symbol
  _atom_site_label
  _atom_site_symmetry_multiplicity
  _atom_site_fract_x
  _atom_site_fract_y
  _atom_site_fract_z
  _atom_site_occupancy
  Mn  Mn1       1.0  1.00000  0.49999  0.50000  1.0000
  H   H1        1.0  0.72441  0.35642  0.54583  1.0000
  H   H2        1.0  0.27561  0.64358  0.45418  1.0000
  H   H3        1.0  0.03369  0.14397  0.38840  1.0000
  H   H4        1.0  0.96631  0.85602  0.61159  1.0000
  H   H5        1.0  0.83550  0.92301  0.37987  1.0000
  H   H6        1.0  0.16450  0.07699  0.62014  1.0000
  H   H7        1.0  0.48672  0.20373  0.41362  1.0000
  H   H8        1.0  0.51329  0.79629  0.58640  1.0000
  H   H9        1.0  0.72702  0.89805  0.55151  1.0000
  H   H10       1.0  0.27299  0.10197  0.44851  1.0000
  H   H11       1.0  0.85728  0.49105  0.22304  1.0000
  H   H12       1.0  0.14270  0.50890  0.77694  1.0000
  H   H13       1.0  0.69512  0.59279  0.52655  1.0000
  H   H14       1.0  0.30489  0.40721  0.47345  1.0000
  H   H15       1.0  0.48117  0.58450  0.32740  1.0000
  H   H16       1.0  0.51883  0.41550  0.67260  1.0000
  H   H17       1.0  0.36960  0.45773  0.13809  1.0000
  H   H18       1.0  0.63039  0.54227  0.86190  1.0000
  H   H19       1.0  0.76082  0.57258  0.07046  1.0000
  H   H20       1.0  0.23917  0.42743  0.92953  1.0000
  C   C1        1.0  0.78177  0.27170  0.49918  1.0000
  C   C2        1.0  0.21824  0.72831  0.50083  1.0000
  C   C3        1.0  0.94101  0.15564  0.42113  1.0000
  C   C4        1.0  0.05899  0.84435  0.57887  1.0000
  C   C5        1.0  0.84355  0.04521  0.41556  1.0000
  C   C6        1.0  0.15645  0.95479  0.58444  1.0000
  C   C7        1.0  0.61981  0.05725  0.48099  1.0000
  C   C8        1.0  0.38020  0.94277  0.51903  1.0000
  C   C9        1.0  0.49257  0.11595  0.45300  1.0000
  C   C10       1.0  0.50744  0.88406  0.54702  1.0000
  C   C11       1.0  0.62721  0.94123  0.52775  1.0000
  C   C12       1.0  0.37280  0.05878  0.47227  1.0000
  C   C13       1.0  0.78698  0.51989  0.28049  1.0000
  C   C14       1.0  0.21301  0.48008  0.71950  1.0000
  C   C15       1.0  0.69774  0.57077  0.43411  1.0000
  C   C16       1.0  0.30226  0.42922  0.56589  1.0000
  C   C17       1.0  0.59068  0.56772  0.33646  1.0000
  C   C18       1.0  0.40932  0.43227  0.66354  1.0000
  C   C19       1.0  0.57360  0.51787  0.11847  1.0000
  C   C20       1.0  0.42639  0.48211  0.88152  1.0000
  C   C21       1.0  0.42687  0.47784  0.07823  1.0000
  C   C22       1.0  0.57313  0.52215  0.92176  1.0000
  C   C23       1.0  0.64680  0.53990  0.04003  1.0000
  C   C24       1.0  0.35319  0.46009  0.95995  1.0000
  C   C25       1.0  0.12256  0.18866  0.15880  1.0000
  C   C26       1.0  0.87743  0.81135  0.84119  1.0000
  S   S1        1.0  0.12393  0.39343  0.24526  1.0000
  S   S2        1.0  0.87606  0.60659  0.75474  1.0000
  N   N1        1.0  0.90214  0.29692  0.47415  1.0000
  N   N2        1.0  0.09786  0.70308  0.52585  1.0000
  N   N3        1.0  0.74255  0.12017  0.46507  1.0000
  N   N4        1.0  0.25746  0.87983  0.53494  1.0000
  N   N5        1.0  0.82012  0.54020  0.39845  1.0000
  N   N6        1.0  0.17987  0.45978  0.60154  1.0000
  N   N7        1.0  0.64769  0.53552  0.23941  1.0000
  N   N8        1.0  0.35230  0.46445  0.76058  1.0000
  O   O1        1.0  0.06122  0.38455  0.34136  1.0000
  O   O2        1.0  0.93879  0.61545  0.65865  1.0000
  O   O3        1.0  0.03819  0.45079  0.15863  1.0000
  O   O4        1.0  0.96181  0.54924  0.84139  1.0000
  O   O5        1.0  0.27420  0.45085  0.29100  1.0000
  O   O6        1.0  0.72581  0.54916  0.70901  1.0000
  F   F1        1.0  0.99036  0.11386  0.11787  1.0000
  F   F2        1.0  0.00963  0.88616  0.88212  1.0000
  F   F3        1.0  0.20544  0.12349  0.23090  1.0000
  F   F4        1.0  0.79454  0.87651  0.76909  1.0000
  F   F5        1.0  0.17435  0.17268  0.06319  1.0000
  F   F6        1.0  0.82564  0.82734  0.93681  1.0000
