data_image0
_chemical_formula_structural       Cd2H24C20O16
_chemical_formula_sum              "Cd2 H24 C20 O16"
_cell_length_a       5.38756
_cell_length_b       6.51504
_cell_length_c       18.1849
_cell_angle_alpha    93.7148
_cell_angle_beta     89.9787
_cell_angle_gamma    114.444

_space_group_name_H-M_alt    "P 1"
_space_group_IT_number       1

loop_
  _space_group_symop_operation_xyz
  'x, y, z'

loop_
  _atom_site_type_symbol
  _atom_site_label
  _atom_site_symmetry_multiplicity
  _atom_site_fract_x
  _atom_site_fract_y
  _atom_site_fract_z
  _atom_site_occupancy
  Cd  Cd1       1.0  0.80891  0.99984  0.24999  1.0000
  Cd  Cd2       1.0  0.19110  0.00015  0.75001  1.0000
  H   H1        1.0  0.93029  0.64313  0.30455  1.0000
  H   H2        1.0  0.28702  0.35671  0.19543  1.0000
  H   H3        1.0  0.06969  0.35686  0.69545  1.0000
  H   H4        1.0  0.71298  0.64330  0.80457  1.0000
  H   H5        1.0  0.17187  0.89052  0.33131  1.0000
  H   H6        1.0  0.28119  0.10934  0.16864  1.0000
  H   H7        1.0  0.82813  0.10946  0.66869  1.0000
  H   H8        1.0  0.71883  0.89067  0.83136  1.0000
  H   H9        1.0  0.63933  0.53259  0.41115  1.0000
  H   H10       1.0  0.10645  0.46728  0.08885  1.0000
  H   H11       1.0  0.36068  0.46741  0.58885  1.0000
  H   H12       1.0  0.89355  0.53273  0.91115  1.0000
  H   H13       1.0  0.42643  0.49826  0.33225  1.0000
  H   H14       1.0  0.92763  0.50128  0.16777  1.0000
  H   H15       1.0  0.57357  0.50173  0.66775  1.0000
  H   H16       1.0  0.07238  0.49872  0.83224  1.0000
  H   H17       1.0  0.83492  0.08239  0.49450  1.0000
  H   H18       1.0  0.75297  0.91764  0.00555  1.0000
  H   H19       1.0  0.16510  0.91761  0.50550  1.0000
  H   H20       1.0  0.24703  0.08237  0.99446  1.0000
  H   H21       1.0  0.39562  0.73411  0.42734  1.0000
  H   H22       1.0  0.66094  0.26581  0.07266  1.0000
  H   H23       1.0  0.60440  0.26589  0.57267  1.0000
  H   H24       1.0  0.33905  0.73419  0.92735  1.0000
  C   C1        1.0  0.60399  0.26153  0.33465  1.0000
  C   C2        1.0  0.34200  0.73830  0.16540  1.0000
  C   C3        1.0  0.39599  0.73846  0.66534  1.0000
  C   C4        1.0  0.65801  0.26172  0.83460  1.0000
  C   C5        1.0  0.47982  0.40637  0.37395  1.0000
  C   C6        1.0  0.07299  0.59338  0.12610  1.0000
  C   C7        1.0  0.52017  0.59363  0.62604  1.0000
  C   C8        1.0  0.92702  0.40663  0.87389  1.0000
  C   C9        1.0  0.13068  0.39306  0.45545  1.0000
  C   C10       1.0  0.73752  0.60685  0.04460  1.0000
  C   C11       1.0  0.86934  0.60693  0.54455  1.0000
  C   C12       1.0  0.26248  0.39315  0.95542  1.0000
  C   C13       1.0  0.90677  0.26552  0.49664  1.0000
  C   C14       1.0  0.64144  0.73450  0.00340  1.0000
  C   C15       1.0  0.09326  0.73449  0.50336  1.0000
  C   C16       1.0  0.35853  0.26548  0.99661  1.0000
  C   C17       1.0  0.22361  0.62897  0.45891  1.0000
  C   C18       1.0  0.59426  0.37098  0.04109  1.0000
  C   C19       1.0  0.77640  0.37103  0.54109  1.0000
  C   C20       1.0  0.40572  0.62902  0.95891  1.0000
  O   O1        1.0  0.81119  0.36386  0.29577  1.0000
  O   O2        1.0  0.44688  0.63615  0.20430  1.0000
  O   O3        1.0  0.18879  0.63612  0.70423  1.0000
  O   O4        1.0  0.55313  0.36388  0.79569  1.0000
  O   O5        1.0  0.50691  0.04864  0.33908  1.0000
  O   O6        1.0  0.45789  0.95117  0.16096  1.0000
  O   O7        1.0  0.49309  0.95137  0.66091  1.0000
  O   O8        1.0  0.54211  0.04884  0.83904  1.0000
  O   O9        1.0  0.24644  0.27358  0.41329  1.0000
  O   O10       1.0  0.97258  0.72619  0.08682  1.0000
  O   O11       1.0  0.75357  0.72643  0.58671  1.0000
  O   O12       1.0  0.02739  0.27381  0.91319  1.0000
  O   O13       1.0  0.97664  0.80809  0.31515  1.0000
  O   O14       1.0  0.16836  0.19181  0.18474  1.0000
  O   O15       1.0  0.02335  0.19190  0.68485  1.0000
  O   O16       1.0  0.83166  0.80821  0.81527  1.0000
