data_image0
_chemical_formula_structural       HgH20C20S2N6O6
_chemical_formula_sum              "Hg1 H20 C20 S2 N6 O6"
_cell_length_a       5.46528
_cell_length_b       10.4294
_cell_length_c       11.5546
_cell_angle_alpha    72.4851
_cell_angle_beta     75.1703
_cell_angle_gamma    80.4217

_space_group_name_H-M_alt    "P 1"
_space_group_IT_number       1

loop_
  _space_group_symop_operation_xyz
  'x, y, z'

loop_
  _atom_site_type_symbol
  _atom_site_label
  _atom_site_symmetry_multiplicity
  _atom_site_fract_x
  _atom_site_fract_y
  _atom_site_fract_z
  _atom_site_occupancy
  Hg  Hg1       1.0  0.00001  1.00000  0.99998  1.0000
  H   H1        1.0  0.54942  0.28561  0.61975  1.0000
  H   H2        1.0  0.45064  0.71436  0.38022  1.0000
  H   H3        1.0  0.34573  0.41008  0.55474  1.0000
  H   H4        1.0  0.65434  0.58990  0.44526  1.0000
  H   H5        1.0  0.14994  0.26635  0.03332  1.0000
  H   H6        1.0  0.84999  0.73365  0.96668  1.0000
  H   H7        1.0  0.25697  0.62535  0.85868  1.0000
  H   H8        1.0  0.74294  0.37467  0.14137  1.0000
  H   H9        1.0  0.26031  0.55477  0.73680  1.0000
  H   H10       1.0  0.73967  0.44524  0.26325  1.0000
  H   H11       1.0  0.02209  0.51563  0.87646  1.0000
  H   H12       1.0  0.97787  0.48438  0.12355  1.0000
  H   H13       1.0  0.13402  0.24806  0.26112  1.0000
  H   H14       1.0  0.86593  0.75189  0.73892  1.0000
  H   H15       1.0  0.14434  0.38174  0.40384  1.0000
  H   H16       1.0  0.85571  0.61824  0.59617  1.0000
  H   H17       1.0  0.81831  0.13311  0.49807  1.0000
  H   H18       1.0  0.18170  0.86685  0.50193  1.0000
  H   H19       1.0  0.81086  0.00222  0.35188  1.0000
  H   H20       1.0  0.18909  0.99771  0.64815  1.0000
  C   C1        1.0  0.57821  0.22425  0.98785  1.0000
  C   C2        1.0  0.42174  0.77574  0.01214  1.0000
  C   C3        1.0  0.33508  0.29793  0.98281  1.0000
  C   C4        1.0  0.66489  0.70208  0.01717  1.0000
  C   C5        1.0  0.38628  0.41522  0.89226  1.0000
  C   C6        1.0  0.61368  0.58483  0.10778  1.0000
  C   C7        1.0  0.22183  0.53442  0.83834  1.0000
  C   C8        1.0  0.77809  0.46559  0.16169  1.0000
  C   C9        1.0  0.47440  0.11906  0.29615  1.0000
  C   C10       1.0  0.52573  0.88095  0.70382  1.0000
  C   C11       1.0  0.28667  0.22565  0.31091  1.0000
  C   C12       1.0  0.71335  0.77434  0.68910  1.0000
  C   C13       1.0  0.29159  0.29920  0.39223  1.0000
  C   C14       1.0  0.70848  0.70082  0.60772  1.0000
  C   C15       1.0  0.48290  0.26684  0.46111  1.0000
  C   C16       1.0  0.51716  0.73319  0.53885  1.0000
  C   C17       1.0  0.66998  0.15881  0.44505  1.0000
  C   C18       1.0  0.33010  0.84124  0.55491  1.0000
  C   C19       1.0  0.66695  0.08579  0.36332  1.0000
  C   C20       1.0  0.33311  0.91421  0.63668  1.0000
  S   S1        1.0  0.46591  0.02576  0.19396  1.0000
  S   S2        1.0  0.53408  0.97423  0.80605  1.0000
  N   N1        1.0  0.76495  0.29262  0.90763  1.0000
  N   N2        1.0  0.23499  0.70740  0.09237  1.0000
  N   N3        1.0  0.64271  0.09491  0.05758  1.0000
  N   N4        1.0  0.35722  0.90507  0.94238  1.0000
  N   N5        1.0  0.49712  0.34146  0.53937  1.0000
  N   N6        1.0  0.50301  0.65854  0.46059  1.0000
  O   O1        1.0  0.64193  0.41458  0.84511  1.0000
  O   O2        1.0  0.35801  0.58545  0.15492  1.0000
  O   O3        1.0  0.59247  0.89142  0.23258  1.0000
  O   O4        1.0  0.40754  0.10859  0.76741  1.0000
  O   O5        1.0  0.20261  0.04022  0.18288  1.0000
  O   O6        1.0  0.79732  0.95978  0.81712  1.0000
