data_image0
_chemical_formula_structural       Cu4H36C16N44
_chemical_formula_sum              "Cu4 H36 C16 N44"
_cell_length_a       8.37413
_cell_length_b       9.84194
_cell_length_c       11.5249
_cell_angle_alpha    89.9996
_cell_angle_beta     90.0004
_cell_angle_gamma    96.0062

_space_group_name_H-M_alt    "P 1"
_space_group_IT_number       1

loop_
  _space_group_symop_operation_xyz
  'x, y, z'

loop_
  _atom_site_type_symbol
  _atom_site_label
  _atom_site_symmetry_multiplicity
  _atom_site_fract_x
  _atom_site_fract_y
  _atom_site_fract_z
  _atom_site_occupancy
  Cu  Cu1       1.0  0.94795  0.28021  0.59827  1.0000
  Cu  Cu2       1.0  0.05205  0.21979  0.09827  1.0000
  Cu  Cu3       1.0  0.05205  0.71978  0.40173  1.0000
  Cu  Cu4       1.0  0.94795  0.78022  0.90173  1.0000
  H   H1        1.0  0.40231  0.06169  0.91552  1.0000
  H   H2        1.0  0.59770  0.43831  0.41552  1.0000
  H   H3        1.0  0.59769  0.93830  0.08448  1.0000
  H   H4        1.0  0.40231  0.56169  0.58448  1.0000
  H   H5        1.0  0.70341  0.30694  0.73460  1.0000
  H   H6        1.0  0.29660  0.19306  0.23461  1.0000
  H   H7        1.0  0.29659  0.69306  0.26540  1.0000
  H   H8        1.0  0.70341  0.80694  0.76540  1.0000
  H   H9        1.0  0.67427  0.37099  0.60451  1.0000
  H   H10       1.0  0.32574  0.12901  0.10451  1.0000
  H   H11       1.0  0.32572  0.62901  0.39549  1.0000
  H   H12       1.0  0.67427  0.87099  0.89549  1.0000
  H   H13       1.0  0.87770  0.02954  0.53120  1.0000
  H   H14       1.0  0.12231  0.47047  0.03120  1.0000
  H   H15       1.0  0.12230  0.97046  0.46880  1.0000
  H   H16       1.0  0.87770  0.52954  0.96880  1.0000
  H   H17       1.0  0.90015  0.13101  0.41521  1.0000
  H   H18       1.0  0.09985  0.36899  0.91521  1.0000
  H   H19       1.0  0.09985  0.86899  0.58479  1.0000
  H   H20       1.0  0.90015  0.63101  0.08479  1.0000
  H   H21       1.0  0.64834  0.08276  0.67704  1.0000
  H   H22       1.0  0.35166  0.41725  0.17704  1.0000
  H   H23       1.0  0.35166  0.91724  0.32297  1.0000
  H   H24       1.0  0.64834  0.58276  0.82296  1.0000
  H   H25       1.0  0.49121  0.16932  0.61652  1.0000
  H   H26       1.0  0.50880  0.33068  0.11652  1.0000
  H   H27       1.0  0.50879  0.83067  0.38348  1.0000
  H   H28       1.0  0.49121  0.66932  0.88348  1.0000
  H   H29       1.0  0.64570  0.19535  0.42787  1.0000
  H   H30       1.0  0.35430  0.30465  0.92786  1.0000
  H   H31       1.0  0.35430  0.80465  0.57213  1.0000
  H   H32       1.0  0.64570  0.69534  0.07213  1.0000
  H   H33       1.0  0.61789  0.02064  0.46772  1.0000
  H   H34       1.0  0.38211  0.47937  0.96772  1.0000
  H   H35       1.0  0.38210  0.97936  0.53228  1.0000
  H   H36       1.0  0.61789  0.52064  0.03228  1.0000
  C   C1        1.0  0.28228  0.88410  0.98071  1.0000
  C   C2        1.0  0.71772  0.61590  0.48070  1.0000
  C   C3        1.0  0.71771  0.11589  0.01930  1.0000
  C   C4        1.0  0.28228  0.38410  0.51930  1.0000
  C   C5        1.0  0.16662  0.03759  0.84987  1.0000
  C   C6        1.0  0.83340  0.46241  0.34987  1.0000
  C   C7        1.0  0.83338  0.96241  0.15013  1.0000
  C   C8        1.0  0.16661  0.53759  0.65013  1.0000
  C   C9        1.0  0.62099  0.16034  0.61351  1.0000
  C   C10       1.0  0.37902  0.33967  0.11351  1.0000
  C   C11       1.0  0.37901  0.83966  0.38649  1.0000
  C   C12       1.0  0.62098  0.66034  0.88649  1.0000
  C   C13       1.0  0.67534  0.12132  0.49335  1.0000
  C   C14       1.0  0.32467  0.37869  0.99336  1.0000
  C   C15       1.0  0.32465  0.87868  0.50665  1.0000
  C   C16       1.0  0.67534  0.62132  0.00665  1.0000
  N   N1        1.0  0.02250  0.14877  0.74109  1.0000
  N   N2        1.0  0.97750  0.35123  0.24109  1.0000
  N   N3        1.0  0.97749  0.85123  0.25891  1.0000
  N   N4        1.0  0.02250  0.64877  0.75891  1.0000
  N   N5        1.0  0.17159  0.15354  0.78811  1.0000
  N   N6        1.0  0.82842  0.34646  0.28811  1.0000
  N   N7        1.0  0.82841  0.84646  0.21189  1.0000
  N   N8        1.0  0.17159  0.65354  0.71189  1.0000
  N   N9        1.0  0.29232  0.00039  0.91499  1.0000
  N   N10       1.0  0.70767  0.49961  0.41498  1.0000
  N   N11       1.0  0.70768  0.99962  0.08501  1.0000
  N   N12       1.0  0.29232  0.50039  0.58501  1.0000
  N   N13       1.0  0.34020  0.72863  0.09932  1.0000
  N   N14       1.0  0.65981  0.77138  0.59931  1.0000
  N   N15       1.0  0.65980  0.27137  0.90068  1.0000
  N   N16       1.0  0.34020  0.22863  0.40069  1.0000
  N   N17       1.0  0.15673  0.78670  0.98281  1.0000
  N   N18       1.0  0.84327  0.71329  0.48280  1.0000
  N   N19       1.0  0.84326  0.21330  0.01720  1.0000
  N   N20       1.0  0.15673  0.28670  0.51720  1.0000
  N   N21       1.0  0.71505  0.29001  0.64680  1.0000
  N   N22       1.0  0.28494  0.20999  0.14680  1.0000
  N   N23       1.0  0.28496  0.71000  0.35320  1.0000
  N   N24       1.0  0.71505  0.79001  0.85320  1.0000
  N   N25       1.0  0.85148  0.12102  0.49654  1.0000
  N   N26       1.0  0.14851  0.37898  0.99655  1.0000
  N   N27       1.0  0.14853  0.87898  0.50346  1.0000
  N   N28       1.0  0.85148  0.62102  0.00346  1.0000
  N   N29       1.0  0.02130  0.96413  0.84065  1.0000
  N   N30       1.0  0.97870  0.53587  0.34065  1.0000
  N   N31       1.0  0.97870  0.03587  0.15935  1.0000
  N   N32       1.0  0.02130  0.46413  0.65935  1.0000
  N   N33       1.0  0.39832  0.85122  0.05328  1.0000
  N   N34       1.0  0.60168  0.64878  0.55328  1.0000
  N   N35       1.0  0.60167  0.14877  0.94672  1.0000
  N   N36       1.0  0.39833  0.35123  0.44672  1.0000
  N   N37       1.0  0.19723  0.69042  0.05796  1.0000
  N   N38       1.0  0.80277  0.80958  0.55796  1.0000
  N   N39       1.0  0.80276  0.30958  0.94204  1.0000
  N   N40       1.0  0.19723  0.19042  0.44204  1.0000
  N   N41       1.0  0.93253  0.03760  0.77119  1.0000
  N   N42       1.0  0.06747  0.46241  0.27119  1.0000
  N   N43       1.0  0.06747  0.96240  0.22881  1.0000
  N   N44       1.0  0.93253  0.53760  0.72881  1.0000
