data_image0
_chemical_formula_structural       Zn2H16C18O16
_chemical_formula_sum              "Zn2 H16 C18 O16"
_cell_length_a       6.95561
_cell_length_b       6.99659
_cell_length_c       12.5438
_cell_angle_alpha    74.4337
_cell_angle_beta     87.6592
_cell_angle_gamma    65.2346

_space_group_name_H-M_alt    "P 1"
_space_group_IT_number       1

loop_
  _space_group_symop_operation_xyz
  'x, y, z'

loop_
  _atom_site_type_symbol
  _atom_site_label
  _atom_site_symmetry_multiplicity
  _atom_site_fract_x
  _atom_site_fract_y
  _atom_site_fract_z
  _atom_site_occupancy
  Zn  Zn1       1.0  0.50000  0.50000  1.00000  1.0000
  Zn  Zn2       1.0  1.00000  0.00000  1.00000  1.0000
  H   H1        1.0  0.15686  0.76672  0.64356  1.0000
  H   H2        1.0  0.84314  0.23327  0.35644  1.0000
  H   H3        1.0  0.58788  0.11792  0.12174  1.0000
  H   H4        1.0  0.41212  0.88208  0.87825  1.0000
  H   H5        1.0  0.48969  0.26872  0.20438  1.0000
  H   H6        1.0  0.51032  0.73127  0.79563  1.0000
  H   H7        1.0  0.09265  0.59157  0.05004  1.0000
  H   H8        1.0  0.90735  0.40843  0.94996  1.0000
  H   H9        1.0  0.09485  0.62933  0.91831  1.0000
  H   H10       1.0  0.90515  0.37068  0.08169  1.0000
  H   H11       1.0  0.22195  0.82339  0.36544  1.0000
  H   H12       1.0  0.77805  0.17661  0.63457  1.0000
  H   H13       1.0  0.80034  0.70185  0.54020  1.0000
  H   H14       1.0  0.19967  0.29815  0.45980  1.0000
  H   H15       1.0  0.98610  0.67738  0.36596  1.0000
  H   H16       1.0  0.01390  0.32262  0.63404  1.0000
  C   C1        1.0  0.82760  0.71836  0.16697  1.0000
  C   C2        1.0  0.17240  0.28165  0.83303  1.0000
  C   C3        1.0  0.37943  0.78819  0.16604  1.0000
  C   C4        1.0  0.62058  0.21181  0.83396  1.0000
  C   C5        1.0  0.38938  0.79065  0.36671  1.0000
  C   C6        1.0  0.61061  0.20936  0.63329  1.0000
  C   C7        1.0  0.49254  0.77351  0.26970  1.0000
  C   C8        1.0  0.50746  0.22649  0.73030  1.0000
  C   C9        1.0  0.50162  0.75941  0.46474  1.0000
  C   C10       1.0  0.49838  0.24058  0.53527  1.0000
  C   C11       1.0  0.70979  0.72806  0.27034  1.0000
  C   C12       1.0  0.29021  0.27195  0.72966  1.0000
  C   C13       1.0  0.71646  0.72129  0.46388  1.0000
  C   C14       1.0  0.28354  0.27871  0.53612  1.0000
  C   C15       1.0  0.81923  0.70710  0.36714  1.0000
  C   C16       1.0  0.18078  0.29289  0.63286  1.0000
  C   C17       1.0  0.40607  0.75504  0.57232  1.0000
  C   C18       1.0  0.59391  0.24496  0.42766  1.0000
  O   O1        1.0  0.96850  0.53677  0.15900  1.0000
  O   O2        1.0  0.03150  0.46323  0.84101  1.0000
  O   O3        1.0  0.50527  0.72232  0.65925  1.0000
  O   O4        1.0  0.49473  0.27766  0.34075  1.0000
  O   O5        1.0  0.78527  0.90580  0.09807  1.0000
  O   O6        1.0  0.21473  0.09420  0.90194  1.0000
  O   O7        1.0  0.47400  0.26058  0.12817  1.0000
  O   O8        1.0  0.52600  0.73942  0.87183  1.0000
  O   O9        1.0  0.49982  0.68273  0.10323  1.0000
  O   O10       1.0  0.50019  0.31727  0.89677  1.0000
  O   O11       1.0  0.14693  0.66175  0.98057  1.0000
  O   O12       1.0  0.85308  0.33825  0.01943  1.0000
  O   O13       1.0  0.20117  0.78459  0.56757  1.0000
  O   O14       1.0  0.79882  0.21541  0.43243  1.0000
  O   O15       1.0  0.17932  0.89977  0.15054  1.0000
  O   O16       1.0  0.82068  0.10023  0.84946  1.0000
