data_image0
_chemical_formula_structural       Cd2H20C20Br4N12O8
_chemical_formula_sum              "Cd2 H20 C20 Br4 N12 O8"
_cell_length_a       3.8614
_cell_length_b       13.0396
_cell_length_c       15.6071
_cell_angle_alpha    89.9998
_cell_angle_beta     90
_cell_angle_gamma    90.002

_space_group_name_H-M_alt    "P 1"
_space_group_IT_number       1

loop_
  _space_group_symop_operation_xyz
  'x, y, z'

loop_
  _atom_site_type_symbol
  _atom_site_label
  _atom_site_symmetry_multiplicity
  _atom_site_fract_x
  _atom_site_fract_y
  _atom_site_fract_z
  _atom_site_occupancy
  Cd  Cd1       1.0  0.48548  0.50000  0.50000  1.0000
  Cd  Cd2       1.0  0.98551  1.00000  0.00001  1.0000
  H   H1        1.0  0.14613  0.13962  0.67274  1.0000
  H   H2        1.0  0.14620  0.86038  0.32726  1.0000
  H   H3        1.0  0.64619  0.63961  0.82725  1.0000
  H   H4        1.0  0.64616  0.36038  0.17274  1.0000
  H   H5        1.0  0.95676  0.23254  0.80536  1.0000
  H   H6        1.0  0.95683  0.76746  0.19463  1.0000
  H   H7        1.0  0.45685  0.73254  0.69463  1.0000
  H   H8        1.0  0.45686  0.26747  0.30538  1.0000
  H   H9        1.0  0.41313  0.50718  0.70056  1.0000
  H   H10       1.0  0.41314  0.49282  0.29944  1.0000
  H   H11       1.0  0.91307  0.00718  0.79944  1.0000
  H   H12       1.0  0.91314  0.99283  0.20057  1.0000
  H   H13       1.0  0.63547  0.26510  0.50127  1.0000
  H   H14       1.0  0.63550  0.73489  0.49873  1.0000
  H   H15       1.0  0.13539  0.76511  0.99873  1.0000
  H   H16       1.0  0.13538  0.23489  0.00126  1.0000
  H   H17       1.0  0.46975  0.14971  0.54043  1.0000
  H   H18       1.0  0.46978  0.85030  0.45958  1.0000
  H   H19       1.0  0.96975  0.64969  0.95957  1.0000
  H   H20       1.0  0.96971  0.35030  0.04041  1.0000
  C   C1        1.0  0.20312  0.22055  0.68212  1.0000
  C   C2        1.0  0.20317  0.77945  0.31787  1.0000
  C   C3        1.0  0.70316  0.72054  0.81787  1.0000
  C   C4        1.0  0.70313  0.27945  0.18212  1.0000
  C   C5        1.0  0.10095  0.27106  0.75479  1.0000
  C   C6        1.0  0.10100  0.72893  0.24521  1.0000
  C   C7        1.0  0.60098  0.77106  0.74521  1.0000
  C   C8        1.0  0.60100  0.22894  0.25479  1.0000
  C   C9        1.0  0.18841  0.37559  0.76323  1.0000
  C   C10       1.0  0.18841  0.62440  0.23677  1.0000
  C   C11       1.0  0.68838  0.87560  0.73676  1.0000
  C   C12       1.0  0.68843  0.12441  0.26323  1.0000
  C   C13       1.0  0.35562  0.42562  0.69602  1.0000
  C   C14       1.0  0.35563  0.57438  0.30398  1.0000
  C   C15       1.0  0.85557  0.92562  0.80398  1.0000
  C   C16       1.0  0.85562  0.07439  0.19602  1.0000
  C   C17       1.0  0.38529  0.27495  0.61700  1.0000
  C   C18       1.0  0.38532  0.72504  0.38301  1.0000
  C   C19       1.0  0.88529  0.77496  0.88301  1.0000
  C   C20       1.0  0.88528  0.22505  0.11699  1.0000
  Br  Br1       1.0  0.97496  0.61386  0.58402  1.0000
  Br  Br2       1.0  0.97501  0.38614  0.41600  1.0000
  Br  Br3       1.0  0.47503  0.11386  0.91600  1.0000
  Br  Br4       1.0  0.47500  0.88612  0.08401  1.0000
  N   N1        1.0  0.44297  0.37831  0.62332  1.0000
  N   N2        1.0  0.44299  0.62168  0.37668  1.0000
  N   N3        1.0  0.94293  0.87833  0.87668  1.0000
  N   N4        1.0  0.94294  0.12169  0.12332  1.0000
  N   N5        1.0  0.50370  0.22636  0.54776  1.0000
  N   N6        1.0  0.50373  0.77363  0.45224  1.0000
  N   N7        1.0  0.00367  0.72636  0.95224  1.0000
  N   N8        1.0  0.00365  0.27363  0.04775  1.0000
  N   N9        1.0  0.09262  0.43156  0.83861  1.0000
  N   N10       1.0  0.09259  0.56843  0.16139  1.0000
  N   N11       1.0  0.59261  0.93157  0.66139  1.0000
  N   N12       1.0  0.59264  0.06843  0.33861  1.0000
  O   O1        1.0  0.91046  0.38696  0.89332  1.0000
  O   O2        1.0  0.91044  0.61304  0.10668  1.0000
  O   O3        1.0  0.41047  0.88696  0.60668  1.0000
  O   O4        1.0  0.41048  0.11302  0.39333  1.0000
  O   O5        1.0  0.19076  0.52266  0.84630  1.0000
  O   O6        1.0  0.19071  0.47733  0.15371  1.0000
  O   O7        1.0  0.69078  0.02267  0.65370  1.0000
  O   O8        1.0  0.69079  0.97734  0.34631  1.0000
