data_image0
_chemical_formula_structural       Zn2H36C44N8O8
_chemical_formula_sum              "Zn2 H36 C44 N8 O8"
_cell_length_a       11.8081
_cell_length_b       11.8237
_cell_length_c       13.5381
_cell_angle_alpha    110.895
_cell_angle_beta     89.9996
_cell_angle_gamma    119.957

_space_group_name_H-M_alt    "P 1"
_space_group_IT_number       1

loop_
  _space_group_symop_operation_xyz
  'x, y, z'

loop_
  _atom_site_type_symbol
  _atom_site_label
  _atom_site_symmetry_multiplicity
  _atom_site_fract_x
  _atom_site_fract_y
  _atom_site_fract_z
  _atom_site_occupancy
  Zn  Zn1       1.0  0.97949  0.00000  0.75000  1.0000
  Zn  Zn2       1.0  0.02051  0.99999  0.25000  1.0000
  H   H1        1.0  0.20810  0.17169  0.96861  1.0000
  H   H2        1.0  0.03642  0.82832  0.53139  1.0000
  H   H3        1.0  0.79190  0.82831  0.03139  1.0000
  H   H4        1.0  0.96359  0.17168  0.46861  1.0000
  H   H5        1.0  0.93465  0.72965  0.78648  1.0000
  H   H6        1.0  0.20500  0.27036  0.71351  1.0000
  H   H7        1.0  0.06536  0.27035  0.21352  1.0000
  H   H8        1.0  0.79500  0.72964  0.28649  1.0000
  H   H9        1.0  0.10035  0.76589  0.95698  1.0000
  H   H10       1.0  0.33446  0.23412  0.54301  1.0000
  H   H11       1.0  0.89966  0.23412  0.04302  1.0000
  H   H12       1.0  0.66553  0.76589  0.45699  1.0000
  H   H13       1.0  0.25692  0.01141  0.14187  1.0000
  H   H14       1.0  0.24551  0.98860  0.35813  1.0000
  H   H15       1.0  0.74307  0.98859  0.85814  1.0000
  H   H16       1.0  0.75449  0.01142  0.64186  1.0000
  H   H17       1.0  0.33355  0.17068  0.12018  1.0000
  H   H18       1.0  0.16287  0.82933  0.37982  1.0000
  H   H19       1.0  0.66645  0.82932  0.87983  1.0000
  H   H20       1.0  0.83713  0.17068  0.62017  1.0000
  H   H21       1.0  0.50385  0.21323  0.00246  1.0000
  H   H22       1.0  0.29061  0.78677  0.49753  1.0000
  H   H23       1.0  0.49616  0.78677  0.99756  1.0000
  H   H24       1.0  0.70939  0.21324  0.50245  1.0000
  H   H25       1.0  0.32757  0.83917  0.07190  1.0000
  H   H26       1.0  0.48841  0.16084  0.42811  1.0000
  H   H27       1.0  0.67244  0.16083  0.92811  1.0000
  H   H28       1.0  0.51159  0.83916  0.57188  1.0000
  H   H29       1.0  0.83057  0.28510  0.83913  1.0000
  H   H30       1.0  0.54546  0.71490  0.66087  1.0000
  H   H31       1.0  0.16943  0.71490  0.16088  1.0000
  H   H32       1.0  0.45453  0.28510  0.33913  1.0000
  H   H33       1.0  0.21519  0.52380  0.05367  1.0000
  H   H34       1.0  0.69140  0.47620  0.44634  1.0000
  H   H35       1.0  0.78481  0.47620  0.94634  1.0000
  H   H36       1.0  0.30859  0.52379  0.55366  1.0000
  C   C1        1.0  0.15572  0.05650  0.94292  1.0000
  C   C2        1.0  0.09921  0.94350  0.55709  1.0000
  C   C3        1.0  0.84429  0.94350  0.05709  1.0000
  C   C4        1.0  0.90079  0.05650  0.44291  1.0000
  C   C5        1.0  0.01495  0.82621  0.85115  1.0000
  C   C6        1.0  0.18875  0.17380  0.64885  1.0000
  C   C7        1.0  0.98506  0.17380  0.14885  1.0000
  C   C8        1.0  0.81125  0.82620  0.35116  1.0000
  C   C9        1.0  0.09650  0.84287  0.93406  1.0000
  C   C10       1.0  0.25364  0.15714  0.56594  1.0000
  C   C11       1.0  0.90350  0.15713  0.06594  1.0000
  C   C12       1.0  0.74636  0.84287  0.43407  1.0000
  C   C13       1.0  0.29658  0.05601  0.08229  1.0000
  C   C14       1.0  0.24057  0.94399  0.41770  1.0000
  C   C15       1.0  0.70342  0.94398  0.91771  1.0000
  C   C16       1.0  0.75943  0.05602  0.58229  1.0000
  C   C17       1.0  0.40460  0.02997  0.04280  1.0000
  C   C18       1.0  0.37462  0.97004  0.45720  1.0000
  C   C19       1.0  0.59541  0.97002  0.95721  1.0000
  C   C20       1.0  0.62537  0.02997  0.54278  1.0000
  C   C21       1.0  0.50198  0.11961  0.00166  1.0000
  C   C22       1.0  0.38237  0.88039  0.49833  1.0000
  C   C23       1.0  0.49803  0.88040  0.99836  1.0000
  C   C24       1.0  0.61763  0.11961  0.50165  1.0000
  C   C25       1.0  0.40368  0.91027  0.04080  1.0000
  C   C26       1.0  0.49340  0.08974  0.45921  1.0000
  C   C27       1.0  0.59633  0.08972  0.95921  1.0000
  C   C28       1.0  0.50659  0.91027  0.54078  1.0000
  C   C29       1.0  0.05127  0.27766  0.88116  1.0000
  C   C30       1.0  0.77361  0.72234  0.61883  1.0000
  C   C31       1.0  0.94873  0.72234  0.11883  1.0000
  C   C32       1.0  0.22638  0.27765  0.38116  1.0000
  C   C33       1.0  0.02540  0.39389  0.94064  1.0000
  C   C34       1.0  0.63151  0.60612  0.55936  1.0000
  C   C35       1.0  0.97460  0.60611  0.05936  1.0000
  C   C36       1.0  0.36848  0.39388  0.44063  1.0000
  C   C37       1.0  0.90394  0.37984  0.90989  1.0000
  C   C38       1.0  0.52410  0.62016  0.59011  1.0000
  C   C39       1.0  0.09605  0.62016  0.09012  1.0000
  C   C40       1.0  0.47589  0.37983  0.40988  1.0000
  C   C41       1.0  0.12152  0.51505  0.03110  1.0000
  C   C42       1.0  0.60648  0.48495  0.46890  1.0000
  C   C43       1.0  0.87847  0.48495  0.96890  1.0000
  C   C44       1.0  0.39352  0.51504  0.53109  1.0000
  N   N1        1.0  0.05302  0.96035  0.85767  1.0000
  N   N2        1.0  0.09267  0.03967  0.64234  1.0000
  N   N3        1.0  0.94700  0.03966  0.14234  1.0000
  N   N4        1.0  0.90733  0.96033  0.35767  1.0000
  N   N5        1.0  0.18420  0.98872  0.99142  1.0000
  N   N6        1.0  0.19547  0.01128  0.50858  1.0000
  N   N7        1.0  0.81580  0.01127  0.00858  1.0000
  N   N8        1.0  0.80452  0.98872  0.49142  1.0000
  O   O1        1.0  0.94622  0.15719  0.81504  1.0000
  O   O2        1.0  0.78903  0.84281  0.68497  1.0000
  O   O3        1.0  0.05377  0.84281  0.18497  1.0000
  O   O4        1.0  0.21097  0.15719  0.31503  1.0000
  O   O5        1.0  0.16587  0.29921  0.89836  1.0000
  O   O6        1.0  0.86665  0.70077  0.60163  1.0000
  O   O7        1.0  0.83413  0.70078  0.10164  1.0000
  O   O8        1.0  0.13334  0.29922  0.39835  1.0000
