data_image0
_chemical_formula_structural       Ag4H24C32N4O8
_chemical_formula_sum              "Ag4 H24 C32 N4 O8"
_cell_length_a       6.81708
_cell_length_b       9.69908
_cell_length_c       11.4994
_cell_angle_alpha    90.0003
_cell_angle_beta     89.9971
_cell_angle_gamma    107.949

_space_group_name_H-M_alt    "P 1"
_space_group_IT_number       1

loop_
  _space_group_symop_operation_xyz
  'x, y, z'

loop_
  _atom_site_type_symbol
  _atom_site_label
  _atom_site_symmetry_multiplicity
  _atom_site_fract_x
  _atom_site_fract_y
  _atom_site_fract_z
  _atom_site_occupancy
  Ag  Ag1       1.0  0.51035  0.20314  0.82307  1.0000
  Ag  Ag2       1.0  0.98967  0.79687  0.32307  1.0000
  Ag  Ag3       1.0  0.48966  0.79685  0.17693  1.0000
  Ag  Ag4       1.0  0.01033  0.20313  0.67693  1.0000
  H   H1        1.0  0.66631  0.45808  0.99138  1.0000
  H   H2        1.0  0.83373  0.54195  0.49138  1.0000
  H   H3        1.0  0.33369  0.54192  0.00862  1.0000
  H   H4        1.0  0.16627  0.45805  0.50861  1.0000
  H   H5        1.0  0.66194  0.50697  0.20296  1.0000
  H   H6        1.0  0.83809  0.49304  0.70296  1.0000
  H   H7        1.0  0.33806  0.49302  0.79704  1.0000
  H   H8        1.0  0.16190  0.50697  0.29703  1.0000
  H   H9        1.0  0.34059  0.05064  0.25125  1.0000
  H   H10       1.0  0.15942  0.94937  0.75124  1.0000
  H   H11       1.0  0.65940  0.94936  0.74876  1.0000
  H   H12       1.0  0.84059  0.05063  0.24875  1.0000
  H   H13       1.0  0.33901  0.02393  0.03823  1.0000
  H   H14       1.0  0.16101  0.97610  0.53823  1.0000
  H   H15       1.0  0.66098  0.97607  0.96177  1.0000
  H   H16       1.0  0.83900  0.02390  0.46177  1.0000
  H   H17       1.0  0.53264  0.41988  0.40001  1.0000
  H   H18       1.0  0.96737  0.58012  0.90000  1.0000
  H   H19       1.0  0.46737  0.58012  0.59999  1.0000
  H   H20       1.0  0.03263  0.41988  0.10000  1.0000
  H   H21       1.0  0.47396  0.09254  0.42914  1.0000
  H   H22       1.0  0.02604  0.90746  0.92914  1.0000
  H   H23       1.0  0.52604  0.90746  0.57086  1.0000
  H   H24       1.0  0.97396  0.09254  0.07086  1.0000
  C   C1        1.0  0.59099  0.37140  0.05154  1.0000
  C   C2        1.0  0.90904  0.62862  0.55153  1.0000
  C   C3        1.0  0.40900  0.62859  0.94847  1.0000
  C   C4        1.0  0.09096  0.37138  0.44846  1.0000
  C   C5        1.0  0.59015  0.39754  0.17041  1.0000
  C   C6        1.0  0.90988  0.60248  0.67040  1.0000
  C   C7        1.0  0.40984  0.60245  0.82960  1.0000
  C   C8        1.0  0.09013  0.39753  0.32960  1.0000
  C   C9        1.0  0.50481  0.28226  0.24740  1.0000
  C   C10       1.0  0.99521  0.71776  0.74739  1.0000
  C   C11       1.0  0.49519  0.71774  0.75261  1.0000
  C   C12       1.0  0.00479  0.28225  0.25261  1.0000
  C   C13       1.0  0.41480  0.14485  0.19770  1.0000
  C   C14       1.0  0.08522  0.85517  0.69770  1.0000
  C   C15       1.0  0.58519  0.85514  0.80230  1.0000
  C   C16       1.0  0.91479  0.14484  0.30230  1.0000
  C   C17       1.0  0.41419  0.12861  0.07805  1.0000
  C   C18       1.0  0.08584  0.87141  0.57804  1.0000
  C   C19       1.0  0.58580  0.87139  0.92195  1.0000
  C   C20       1.0  0.91417  0.12859  0.42195  1.0000
  C   C21       1.0  0.50985  0.30807  0.37263  1.0000
  C   C22       1.0  0.99017  0.69195  0.87263  1.0000
  C   C23       1.0  0.49015  0.69193  0.62737  1.0000
  C   C24       1.0  0.00984  0.30805  0.12736  1.0000
  C   C25       1.0  0.48952  0.20433  0.45366  1.0000
  C   C26       1.0  0.01048  0.79566  0.95365  1.0000
  C   C27       1.0  0.51048  0.79567  0.54635  1.0000
  C   C28       1.0  0.98952  0.20434  0.04635  1.0000
  C   C29       1.0  0.49483  0.23661  0.58022  1.0000
  C   C30       1.0  0.00515  0.76340  0.08021  1.0000
  C   C31       1.0  0.50518  0.76339  0.41979  1.0000
  C   C32       1.0  0.99485  0.23660  0.91978  1.0000
  N   N1        1.0  0.50316  0.23932  0.00479  1.0000
  N   N2        1.0  0.99687  0.76070  0.50479  1.0000
  N   N3        1.0  0.49683  0.76067  0.99522  1.0000
  N   N4        1.0  0.00313  0.23930  0.49521  1.0000
  O   O1        1.0  0.47034  0.35186  0.61798  1.0000
  O   O2        1.0  0.02963  0.64814  0.11799  1.0000
  O   O3        1.0  0.52965  0.64814  0.38202  1.0000
  O   O4        1.0  0.97036  0.35186  0.88202  1.0000
  O   O5        1.0  0.52326  0.13582  0.64690  1.0000
  O   O6        1.0  0.97673  0.86419  0.14689  1.0000
  O   O7        1.0  0.47675  0.86418  0.35310  1.0000
  O   O8        1.0  0.02326  0.13582  0.85310  1.0000
