data_image0
_chemical_formula_structural       Zn2H24C32N8O8
_chemical_formula_sum              "Zn2 H24 C32 N8 O8"
_cell_length_a       7.28515
_cell_length_b       10.8862
_cell_length_c       11.5796
_cell_angle_alpha    118.103
_cell_angle_beta     108.482
_cell_angle_gamma    89.7269

_space_group_name_H-M_alt    "P 1"
_space_group_IT_number       1

loop_
  _space_group_symop_operation_xyz
  'x, y, z'

loop_
  _atom_site_type_symbol
  _atom_site_label
  _atom_site_symmetry_multiplicity
  _atom_site_fract_x
  _atom_site_fract_y
  _atom_site_fract_z
  _atom_site_occupancy
  Zn  Zn1       1.0  0.05589  0.80639  0.61244  1.0000
  Zn  Zn2       1.0  0.94411  0.19361  0.38756  1.0000
  H   H1        1.0  0.48414  0.94185  0.83204  1.0000
  H   H2        1.0  0.84731  0.89039  0.83201  1.0000
  H   H3        1.0  0.51586  0.05815  0.16796  1.0000
  H   H4        1.0  0.15269  0.10962  0.16800  1.0000
  H   H5        1.0  0.67799  0.83602  0.00784  1.0000
  H   H6        1.0  0.82911  0.17183  0.00762  1.0000
  H   H7        1.0  0.32201  0.16398  0.99217  1.0000
  H   H8        1.0  0.17089  0.82817  0.99238  1.0000
  H   H9        1.0  0.13711  0.56449  0.71401  1.0000
  H   H10       1.0  0.07712  0.14979  0.71429  1.0000
  H   H11       1.0  0.86289  0.43552  0.28599  1.0000
  H   H12       1.0  0.92287  0.85021  0.28571  1.0000
  H   H13       1.0  0.56019  0.76195  0.15147  1.0000
  H   H14       1.0  0.09122  0.38939  0.15150  1.0000
  H   H15       1.0  0.43981  0.23805  0.84853  1.0000
  H   H16       1.0  0.90878  0.61061  0.84851  1.0000
  H   H17       1.0  0.63791  0.60985  0.26074  1.0000
  H   H18       1.0  0.12294  0.65071  0.26074  1.0000
  H   H19       1.0  0.36209  0.39015  0.73925  1.0000
  H   H20       1.0  0.87705  0.34929  0.73926  1.0000
  H   H21       1.0  0.39992  0.85675  0.36742  1.0000
  H   H22       1.0  0.46721  0.51013  0.36704  1.0000
  H   H23       1.0  0.60007  0.14324  0.63256  1.0000
  H   H24       1.0  0.53279  0.48987  0.63295  1.0000
  C   C1        1.0  0.44273  0.84848  0.83532  1.0000
  C   C2        1.0  0.89215  0.98702  0.83533  1.0000
  C   C3        1.0  0.55727  0.15152  0.16468  1.0000
  C   C4        1.0  0.10785  0.01298  0.16468  1.0000
  C   C5        1.0  0.53883  0.79729  0.92146  1.0000
  C   C6        1.0  0.88211  0.12427  0.92137  1.0000
  C   C7        1.0  0.46117  0.20271  0.07854  1.0000
  C   C8        1.0  0.11789  0.87573  0.07863  1.0000
  C   C9        1.0  0.25677  0.65259  0.76781  1.0000
  C   C10       1.0  0.01109  0.11547  0.76801  1.0000
  C   C11       1.0  0.74323  0.34741  0.23219  1.0000
  C   C12       1.0  0.98891  0.88453  0.23199  1.0000
  C   C13       1.0  0.45991  0.58438  0.93908  1.0000
  C   C14       1.0  0.97919  0.35478  0.93909  1.0000
  C   C15       1.0  0.54009  0.41562  0.06092  1.0000
  C   C16       1.0  0.02082  0.64522  0.06091  1.0000
  C   C17       1.0  0.53720  0.64734  0.08509  1.0000
  C   C18       1.0  0.04798  0.43766  0.08510  1.0000
  C   C19       1.0  0.46280  0.35266  0.91491  1.0000
  C   C20       1.0  0.95203  0.56234  0.91491  1.0000
  C   C21       1.0  0.57846  0.56240  0.14673  1.0000
  C   C22       1.0  0.06828  0.58418  0.14675  1.0000
  C   C23       1.0  0.42153  0.43760  0.85327  1.0000
  C   C24       1.0  0.93172  0.41582  0.85326  1.0000
  C   C25       1.0  0.31667  0.93269  0.55565  1.0000
  C   C26       1.0  0.73853  0.62308  0.55538  1.0000
  C   C27       1.0  0.68332  0.06730  0.44434  1.0000
  C   C28       1.0  0.26147  0.37692  0.44462  1.0000
  C   C29       1.0  0.43102  0.94384  0.47369  1.0000
  C   C30       1.0  0.54248  0.52972  0.47349  1.0000
  C   C31       1.0  0.56897  0.05615  0.52630  1.0000
  C   C32       1.0  0.45752  0.47028  0.52651  1.0000
  N   N1        1.0  0.26663  0.75816  0.74102  1.0000
  N   N2        1.0  0.97426  0.98313  0.74120  1.0000
  N   N3        1.0  0.73337  0.24185  0.25898  1.0000
  N   N4        1.0  0.02574  0.01687  0.25881  1.0000
  N   N5        1.0  0.42012  0.67256  0.87726  1.0000
  N   N6        1.0  0.95698  0.20484  0.87730  1.0000
  N   N7        1.0  0.57988  0.32744  0.12274  1.0000
  N   N8        1.0  0.04303  0.79516  0.12270  1.0000
  O   O1        1.0  0.35660  0.02360  0.68185  1.0000
  O   O2        1.0  0.82500  0.65840  0.68161  1.0000
  O   O3        1.0  0.64340  0.97640  0.31815  1.0000
  O   O4        1.0  0.17500  0.34161  0.31839  1.0000
  O   O5        1.0  0.17609  0.82308  0.48663  1.0000
  O   O6        1.0  0.80971  0.66396  0.48638  1.0000
  O   O7        1.0  0.82391  0.17692  0.51337  1.0000
  O   O8        1.0  0.19029  0.33605  0.51362  1.0000
