data_image0
_chemical_formula_structural       Cd4H12C8N12
_chemical_formula_sum              "Cd4 H12 C8 N12"
_cell_length_a       8.63563
_cell_length_b       8.63572
_cell_length_c       14.9201
_cell_angle_alpha    91.0759
_cell_angle_beta     91.0772
_cell_angle_gamma    90.4836

_space_group_name_H-M_alt    "P 1"
_space_group_IT_number       1

loop_
  _space_group_symop_operation_xyz
  'x, y, z'

loop_
  _atom_site_type_symbol
  _atom_site_label
  _atom_site_symmetry_multiplicity
  _atom_site_fract_x
  _atom_site_fract_y
  _atom_site_fract_z
  _atom_site_occupancy
  Cd  Cd1       1.0  0.50908  0.49094  0.75000  1.0000
  Cd  Cd2       1.0  0.49093  0.50906  0.25000  1.0000
  Cd  Cd3       1.0  0.49999  0.00000  1.00000  1.0000
  Cd  Cd4       1.0  0.00001  0.50000  0.50000  1.0000
  H   H1        1.0  0.18562  0.09188  0.95310  1.0000
  H   H2        1.0  0.90812  0.81437  0.54690  1.0000
  H   H3        1.0  0.81438  0.90812  0.04690  1.0000
  H   H4        1.0  0.09188  0.18562  0.45310  1.0000
  H   H5        1.0  0.18794  0.89958  0.94903  1.0000
  H   H6        1.0  0.10043  0.81206  0.55097  1.0000
  H   H7        1.0  0.81206  0.10042  0.05097  1.0000
  H   H8        1.0  0.89957  0.18794  0.44903  1.0000
  H   H9        1.0  0.17129  0.99240  0.04673  1.0000
  H   H10       1.0  0.00760  0.82871  0.45327  1.0000
  H   H11       1.0  0.82870  0.00760  0.95327  1.0000
  H   H12       1.0  0.99240  0.17129  0.54673  1.0000
  C   C1        1.0  0.50840  0.28478  0.83698  1.0000
  C   C2        1.0  0.71523  0.49160  0.66302  1.0000
  C   C3        1.0  0.49160  0.71523  0.16302  1.0000
  C   C4        1.0  0.28478  0.50840  0.33699  1.0000
  C   C5        1.0  0.30277  0.49060  0.65864  1.0000
  C   C6        1.0  0.50940  0.69724  0.84136  1.0000
  C   C7        1.0  0.69723  0.50940  0.34136  1.0000
  C   C8        1.0  0.49060  0.30276  0.15864  1.0000
  N   N1        1.0  0.50867  0.18207  0.88694  1.0000
  N   N2        1.0  0.81793  0.49134  0.61307  1.0000
  N   N3        1.0  0.49133  0.81792  0.11307  1.0000
  N   N4        1.0  0.18207  0.50866  0.38693  1.0000
  N   N5        1.0  0.49026  0.19882  0.10729  1.0000
  N   N6        1.0  0.80117  0.50974  0.39270  1.0000
  N   N7        1.0  0.50974  0.80118  0.89271  1.0000
  N   N8        1.0  0.19882  0.49026  0.60729  1.0000
  N   N9        1.0  0.22184  0.99541  0.98557  1.0000
  N   N10       1.0  0.00459  0.77816  0.51443  1.0000
  N   N11       1.0  0.77816  0.00459  0.01443  1.0000
  N   N12       1.0  0.99541  0.22184  0.48557  1.0000
