data_image0
_chemical_formula_structural       Cd4H44C36N16
_chemical_formula_sum              "Cd4 H44 C36 N16"
_cell_length_a       8.08284
_cell_length_b       8.08284
_cell_length_c       16.0544
_cell_angle_alpha    91.1286
_cell_angle_beta     91.1285
_cell_angle_gamma    95.7403

_space_group_name_H-M_alt    "P 1"
_space_group_IT_number       1

loop_
  _space_group_symop_operation_xyz
  'x, y, z'

loop_
  _atom_site_type_symbol
  _atom_site_label
  _atom_site_symmetry_multiplicity
  _atom_site_fract_x
  _atom_site_fract_y
  _atom_site_fract_z
  _atom_site_occupancy
  Cd  Cd1       1.0  0.51192  0.49678  0.74949  1.0000
  Cd  Cd2       1.0  0.49679  0.51193  0.24949  1.0000
  Cd  Cd3       1.0  0.49877  0.00484  0.99979  1.0000
  Cd  Cd4       1.0  0.00484  0.49877  0.49979  1.0000
  H   H1        1.0  0.18709  0.81342  0.96030  1.0000
  H   H2        1.0  0.81342  0.18709  0.46030  1.0000
  H   H3        1.0  0.20586  0.97244  0.89799  1.0000
  H   H4        1.0  0.97244  0.20586  0.39799  1.0000
  H   H5        1.0  0.12821  0.15568  0.01125  1.0000
  H   H6        1.0  0.15568  0.12821  0.51125  1.0000
  H   H7        1.0  0.10089  0.97780  0.07328  1.0000
  H   H8        1.0  0.97780  0.10089  0.57328  1.0000
  H   H9        1.0  0.89941  0.03487  0.91398  1.0000
  H   H10       1.0  0.03487  0.89941  0.41398  1.0000
  H   H11       1.0  0.87441  0.85247  0.97314  1.0000
  H   H12       1.0  0.85247  0.87441  0.47314  1.0000
  H   H13       1.0  0.80734  0.03631  0.09108  1.0000
  H   H14       1.0  0.03631  0.80734  0.59108  1.0000
  H   H15       1.0  0.81360  0.19205  0.02729  1.0000
  H   H16       1.0  0.19205  0.81360  0.52729  1.0000
  H   H17       1.0  0.64376  0.72493  0.58792  1.0000
  H   H18       1.0  0.72493  0.64376  0.08792  1.0000
  H   H19       1.0  0.67203  0.90606  0.64867  1.0000
  H   H20       1.0  0.90606  0.67202  0.14867  1.0000
  H   H21       1.0  0.48151  0.71360  0.45564  1.0000
  H   H22       1.0  0.71360  0.48151  0.95564  1.0000
  H   H23       1.0  0.37040  0.87464  0.34193  1.0000
  H   H24       1.0  0.87464  0.37041  0.84193  1.0000
  H   H25       1.0  0.36910  0.18268  0.35584  1.0000
  H   H26       1.0  0.18268  0.36910  0.85584  1.0000
  H   H27       1.0  0.48806  0.32812  0.48584  1.0000
  H   H28       1.0  0.32812  0.48806  0.98583  1.0000
  H   H29       1.0  0.60316  0.16833  0.59916  1.0000
  H   H30       1.0  0.16833  0.60316  0.09916  1.0000
  H   H31       1.0  0.68760  0.98511  0.79582  1.0000
  H   H32       1.0  0.98511  0.68760  0.29582  1.0000
  H   H33       1.0  0.75269  0.16799  0.75390  1.0000
  H   H34       1.0  0.16798  0.75269  0.25390  1.0000
  H   H35       1.0  0.85441  0.74471  0.78623  1.0000
  H   H36       1.0  0.74472  0.85441  0.28623  1.0000
  H   H37       1.0  0.13428  0.65477  0.76818  1.0000
  H   H38       1.0  0.65477  0.13429  0.26818  1.0000
  H   H39       1.0  0.36681  0.85523  0.71851  1.0000
  H   H40       1.0  0.85523  0.36682  0.21851  1.0000
  H   H41       1.0  0.31340  0.14772  0.69222  1.0000
  H   H42       1.0  0.14772  0.31340  0.19221  1.0000
  H   H43       1.0  0.03408  0.23955  0.71166  1.0000
  H   H44       1.0  0.23955  0.03408  0.21165  1.0000
  C   C1        1.0  0.50278  0.28732  0.83687  1.0000
  C   C2        1.0  0.28733  0.50280  0.33687  1.0000
  C   C3        1.0  0.48040  0.73001  0.16754  1.0000
  C   C4        1.0  0.73002  0.48039  0.66754  1.0000
  C   C5        1.0  0.31170  0.47855  0.65411  1.0000
  C   C6        1.0  0.47856  0.31171  0.15411  1.0000
  C   C7        1.0  0.53767  0.70425  0.84180  1.0000
  C   C8        1.0  0.70426  0.53768  0.34180  1.0000
  C   C9        1.0  0.09117  0.02105  0.00913  1.0000
  C   C10       1.0  0.02105  0.09118  0.50913  1.0000
  C   C11       1.0  0.91095  0.98705  0.97716  1.0000
  C   C12       1.0  0.98706  0.91095  0.47716  1.0000
  C   C13       1.0  0.55046  0.92908  0.53601  1.0000
  C   C14       1.0  0.92907  0.55046  0.03601  1.0000
  C   C15       1.0  0.48330  0.84826  0.46233  1.0000
  C   C16       1.0  0.84826  0.48330  0.96233  1.0000
  C   C17       1.0  0.42076  0.94001  0.39836  1.0000
  C   C18       1.0  0.94000  0.42076  0.89836  1.0000
  C   C19       1.0  0.42136  0.11276  0.40552  1.0000
  C   C20       1.0  0.11276  0.42136  0.90552  1.0000
  C   C21       1.0  0.48707  0.19356  0.47857  1.0000
  C   C22       1.0  0.19356  0.48707  0.97857  1.0000
  C   C23       1.0  0.55088  0.10379  0.54292  1.0000
  C   C24       1.0  0.10378  0.55088  0.04291  1.0000
  C   C25       1.0  0.92378  0.99777  0.74924  1.0000
  C   C26       1.0  0.99777  0.92378  0.24923  1.0000
  C   C27       1.0  0.95504  0.83321  0.76555  1.0000
  C   C28       1.0  0.83322  0.95504  0.26555  1.0000
  C   C29       1.0  0.11358  0.78314  0.75540  1.0000
  C   C30       1.0  0.78314  0.11358  0.25540  1.0000
  C   C31       1.0  0.24392  0.89516  0.72859  1.0000
  C   C32       1.0  0.89516  0.24392  0.22859  1.0000
  C   C33       1.0  0.21362  0.05923  0.71368  1.0000
  C   C34       1.0  0.05924  0.21362  0.21368  1.0000
  C   C35       1.0  0.05594  0.11128  0.72444  1.0000
  C   C36       1.0  0.11129  0.05594  0.22444  1.0000
  N   N1        1.0  0.51005  0.19266  0.89053  1.0000
  N   N2        1.0  0.19266  0.51006  0.39053  1.0000
  N   N3        1.0  0.47552  0.82054  0.11180  1.0000
  N   N4        1.0  0.82054  0.47552  0.61180  1.0000
  N   N5        1.0  0.21701  0.46280  0.59791  1.0000
  N   N6        1.0  0.46280  0.21701  0.09792  1.0000
  N   N7        1.0  0.55386  0.79891  0.89814  1.0000
  N   N8        1.0  0.79890  0.55386  0.39814  1.0000
  N   N9        1.0  0.21314  0.94019  0.95927  1.0000
  N   N10       1.0  0.94019  0.21314  0.45927  1.0000
  N   N11       1.0  0.79096  0.06510  0.02974  1.0000
  N   N12       1.0  0.06510  0.79096  0.52974  1.0000
  N   N13       1.0  0.61139  0.84069  0.60006  1.0000
  N   N14       1.0  0.84069  0.61139  0.10006  1.0000
  N   N15       1.0  0.76178  0.04357  0.75257  1.0000
  N   N16       1.0  0.04357  0.76178  0.25257  1.0000
