data_image0
_chemical_formula_structural       Cu3H14C24N4Cl2O2
_chemical_formula_sum              "Cu3 H14 C24 N4 Cl2 O2"
_cell_length_a       7.12018
_cell_length_b       8.35901
_cell_length_c       10.2715
_cell_angle_alpha    111.543
_cell_angle_beta     98.0457
_cell_angle_gamma    106.313

_space_group_name_H-M_alt    "P 1"
_space_group_IT_number       1

loop_
  _space_group_symop_operation_xyz
  'x, y, z'

loop_
  _atom_site_type_symbol
  _atom_site_label
  _atom_site_symmetry_multiplicity
  _atom_site_fract_x
  _atom_site_fract_y
  _atom_site_fract_z
  _atom_site_occupancy
  Cu  Cu1       1.0  0.96846  0.55854  0.61831  1.0000
  Cu  Cu2       1.0  0.03153  0.44145  0.38168  1.0000
  Cu  Cu3       1.0  0.50000  0.50000  0.50000  1.0000
  H   H1        1.0  0.22582  0.13909  0.65046  1.0000
  H   H2        1.0  0.77417  0.86090  0.34955  1.0000
  H   H3        1.0  0.35375  0.19577  0.45351  1.0000
  H   H4        1.0  0.64625  0.80423  0.54650  1.0000
  H   H5        1.0  0.42951  0.06170  0.20686  1.0000
  H   H6        1.0  0.57050  0.93831  0.79315  1.0000
  H   H7        1.0  0.41061  0.78559  0.99192  1.0000
  H   H8        1.0  0.58940  0.21442  0.00809  1.0000
  H   H9        1.0  0.30498  0.43384  0.86393  1.0000
  H   H10       1.0  0.69503  0.56617  0.13607  1.0000
  H   H11       1.0  0.15754  0.12914  0.87346  1.0000
  H   H12       1.0  0.84246  0.87087  0.12654  1.0000
  H   H13       1.0  0.04134  0.12478  0.09412  1.0000
  H   H14       1.0  0.95866  0.87522  0.90587  1.0000
  C   C1        1.0  0.14149  0.84133  0.54289  1.0000
  C   C2        1.0  0.85850  0.15866  0.45710  1.0000
  C   C3        1.0  0.22255  0.02492  0.55363  1.0000
  C   C4        1.0  0.77744  0.97508  0.44637  1.0000
  C   C5        1.0  0.29336  0.05521  0.44424  1.0000
  C   C6        1.0  0.70664  0.94479  0.55576  1.0000
  C   C7        1.0  0.28922  0.90552  0.31833  1.0000
  C   C8        1.0  0.71077  0.09448  0.68167  1.0000
  C   C9        1.0  0.36319  0.92317  0.19996  1.0000
  C   C10       1.0  0.63681  0.07683  0.80004  1.0000
  C   C11       1.0  0.35431  0.77137  0.08197  1.0000
  C   C12       1.0  0.64571  0.22863  0.91803  1.0000
  C   C13       1.0  0.27057  0.59022  0.07442  1.0000
  C   C14       1.0  0.72944  0.40978  0.92558  1.0000
  C   C15       1.0  0.25338  0.42564  0.95724  1.0000
  C   C16       1.0  0.74663  0.57437  0.04276  1.0000
  C   C17       1.0  0.17189  0.25767  0.96240  1.0000
  C   C18       1.0  0.82811  0.74233  0.03760  1.0000
  C   C19       1.0  0.10521  0.25298  0.08404  1.0000
  C   C20       1.0  0.89479  0.74702  0.91595  1.0000
  C   C21       1.0  0.19829  0.57086  0.19163  1.0000
  C   C22       1.0  0.80171  0.42915  0.80837  1.0000
  C   C23       1.0  0.20824  0.72894  0.31407  1.0000
  C   C24       1.0  0.79176  0.27106  0.68593  1.0000
  N   N1        1.0  0.13741  0.69884  0.42292  1.0000
  N   N2        1.0  0.86258  0.30116  0.57708  1.0000
  N   N3        1.0  0.11640  0.40462  0.19428  1.0000
  N   N4        1.0  0.88360  0.59538  0.80571  1.0000
  Cl  Cl1       1.0  0.38880  0.56547  0.68533  1.0000
  Cl  Cl2       1.0  0.61119  0.43454  0.31467  1.0000
  O   O1        1.0  0.07102  0.80936  0.64404  1.0000
  O   O2        1.0  0.92897  0.19062  0.35595  1.0000
