data_image0
_chemical_formula_structural       Ag4H24C32S4N20O12
_chemical_formula_sum              "Ag4 H24 C32 S4 N20 O12"
_cell_length_a       6.14777
_cell_length_b       7.87393
_cell_length_c       22.6244
_cell_angle_alpha    90.0009
_cell_angle_beta     89.9993
_cell_angle_gamma    89.9984

_space_group_name_H-M_alt    "P 1"
_space_group_IT_number       1

loop_
  _space_group_symop_operation_xyz
  'x, y, z'

loop_
  _atom_site_type_symbol
  _atom_site_label
  _atom_site_symmetry_multiplicity
  _atom_site_fract_x
  _atom_site_fract_y
  _atom_site_fract_z
  _atom_site_occupancy
  Ag  Ag1       1.0  0.39120  0.27799  0.42905  1.0000
  Ag  Ag2       1.0  0.10880  0.72202  0.92904  1.0000
  Ag  Ag3       1.0  0.60880  0.77799  0.07096  1.0000
  Ag  Ag4       1.0  0.89121  0.22202  0.57095  1.0000
  H   H1        1.0  0.42690  0.39202  0.29629  1.0000
  H   H2        1.0  0.07311  0.60798  0.79629  1.0000
  H   H3        1.0  0.57311  0.89204  0.20372  1.0000
  H   H4        1.0  0.92689  0.10799  0.70371  1.0000
  H   H5        1.0  0.18737  0.50575  0.21358  1.0000
  H   H6        1.0  0.31265  0.49424  0.71358  1.0000
  H   H7        1.0  0.81265  0.00577  0.28642  1.0000
  H   H8        1.0  0.68736  0.99424  0.78642  1.0000
  H   H9        1.0  0.77918  0.51361  0.23276  1.0000
  H   H10       1.0  0.72084  0.48639  0.73276  1.0000
  H   H11       1.0  0.22084  0.01359  0.26724  1.0000
  H   H12       1.0  0.27917  0.98638  0.76723  1.0000
  H   H13       1.0  0.96767  0.75039  0.35946  1.0000
  H   H14       1.0  0.53232  0.24960  0.85946  1.0000
  H   H15       1.0  0.03230  0.25041  0.14054  1.0000
  H   H16       1.0  0.46768  0.74958  0.64054  1.0000
  H   H17       1.0  0.94430  0.62446  0.46355  1.0000
  H   H18       1.0  0.55568  0.37553  0.96355  1.0000
  H   H19       1.0  0.05567  0.12448  0.03645  1.0000
  H   H20       1.0  0.44431  0.87552  0.53646  1.0000
  H   H21       1.0  0.90973  0.82755  0.54797  1.0000
  H   H22       1.0  0.59026  0.17245  0.04797  1.0000
  H   H23       1.0  0.09024  0.32755  0.95203  1.0000
  H   H24       1.0  0.40977  0.67247  0.45204  1.0000
  C   C1        1.0  0.25043  0.40184  0.30049  1.0000
  C   C2        1.0  0.24958  0.59816  0.80049  1.0000
  C   C3        1.0  0.74958  0.90186  0.19951  1.0000
  C   C4        1.0  0.75041  0.09816  0.69950  1.0000
  C   C5        1.0  0.11809  0.46365  0.25542  1.0000
  C   C6        1.0  0.38193  0.53634  0.75542  1.0000
  C   C7        1.0  0.88192  0.96366  0.24458  1.0000
  C   C8        1.0  0.61808  0.03635  0.74458  1.0000
  C   C9        1.0  0.89491  0.46897  0.26603  1.0000
  C   C10       1.0  0.60511  0.53102  0.76603  1.0000
  C   C11       1.0  0.10511  0.96897  0.23397  1.0000
  C   C12       1.0  0.39489  0.03103  0.73396  1.0000
  C   C13       1.0  0.94825  0.36133  0.35809  1.0000
  C   C14       1.0  0.55176  0.63867  0.85809  1.0000
  C   C15       1.0  0.05175  0.86133  0.14191  1.0000
  C   C16       1.0  0.44824  0.13867  0.64191  1.0000
  C   C17       1.0  0.89852  0.09303  0.43656  1.0000
  C   C18       1.0  0.60148  0.90696  0.93656  1.0000
  C   C19       1.0  0.10147  0.59304  0.06343  1.0000
  C   C20       1.0  0.39852  0.40696  0.56344  1.0000
  C   C21       1.0  0.94401  0.82921  0.39858  1.0000
  C   C22       1.0  0.55598  0.17077  0.89858  1.0000
  C   C23       1.0  0.05596  0.32923  0.10141  1.0000
  C   C24       1.0  0.44402  0.67076  0.60142  1.0000
  C   C25       1.0  0.93287  0.76004  0.45511  1.0000
  C   C26       1.0  0.56711  0.23995  0.95510  1.0000
  C   C27       1.0  0.06708  0.26006  0.04490  1.0000
  C   C28       1.0  0.43290  0.73993  0.54490  1.0000
  C   C29       1.0  0.91190  0.87204  0.50220  1.0000
  C   C30       1.0  0.58810  0.12795  0.00221  1.0000
  C   C31       1.0  0.08809  0.37205  0.99779  1.0000
  C   C32       1.0  0.41192  0.62796  0.49780  1.0000
  S   S1        1.0  0.83887  0.31191  0.42930  1.0000
  S   S2        1.0  0.66113  0.68809  0.92931  1.0000
  S   S3        1.0  0.16112  0.81192  0.07069  1.0000
  S   S4        1.0  0.33887  0.18808  0.57069  1.0000
  N   N1        1.0  0.16574  0.35312  0.35278  1.0000
  N   N2        1.0  0.33427  0.64688  0.85278  1.0000
  N   N3        1.0  0.83426  0.85313  0.14723  1.0000
  N   N4        1.0  0.66573  0.14689  0.64722  1.0000
  N   N5        1.0  0.80793  0.41590  0.31763  1.0000
  N   N6        1.0  0.69209  0.58410  0.81763  1.0000
  N   N7        1.0  0.19208  0.91589  0.18237  1.0000
  N   N8        1.0  0.30791  0.08410  0.68237  1.0000
  N   N9        1.0  0.89619  0.04057  0.49320  1.0000
  N   N10       1.0  0.60380  0.95943  0.99320  1.0000
  N   N11       1.0  0.10380  0.54058  0.00680  1.0000
  N   N12       1.0  0.39620  0.45943  0.50680  1.0000
  N   N13       1.0  0.92577  0.99691  0.38894  1.0000
  N   N14       1.0  0.57423  0.00309  0.88894  1.0000
  N   N15       1.0  0.07421  0.49692  0.11106  1.0000
  N   N16       1.0  0.42577  0.50306  0.61106  1.0000
  N   N17       1.0  0.43822  0.93070  0.37208  1.0000
  N   N18       1.0  0.06178  0.06930  0.87207  1.0000
  N   N19       1.0  0.56178  0.43071  0.12792  1.0000
  N   N20       1.0  0.93823  0.56931  0.62792  1.0000
  O   O1        1.0  0.41864  0.97843  0.42664  1.0000
  O   O2        1.0  0.08137  0.02157  0.92664  1.0000
  O   O3        1.0  0.58135  0.47843  0.07335  1.0000
  O   O4        1.0  0.91865  0.52158  0.57335  1.0000
  O   O5        1.0  0.46885  0.04122  0.33262  1.0000
  O   O6        1.0  0.03115  0.95879  0.83262  1.0000
  O   O7        1.0  0.53115  0.54122  0.16737  1.0000
  O   O8        1.0  0.96885  0.45879  0.66737  1.0000
  O   O9        1.0  0.42662  0.77500  0.36007  1.0000
  O   O10       1.0  0.07338  0.22501  0.86006  1.0000
  O   O11       1.0  0.57339  0.27501  0.13994  1.0000
  O   O12       1.0  0.92662  0.72500  0.63993  1.0000
