data_image0
_chemical_formula_structural       Zn2H12C32N16O12
_chemical_formula_sum              "Zn2 H12 C32 N16 O12"
_cell_length_a       10.2925
_cell_length_b       10.3038
_cell_length_c       11.6834
_cell_angle_alpha    87.2493
_cell_angle_beta     122.208
_cell_angle_gamma    116.612

_space_group_name_H-M_alt    "P 1"
_space_group_IT_number       1

loop_
  _space_group_symop_operation_xyz
  'x, y, z'

loop_
  _atom_site_type_symbol
  _atom_site_label
  _atom_site_symmetry_multiplicity
  _atom_site_fract_x
  _atom_site_fract_y
  _atom_site_fract_z
  _atom_site_occupancy
  Zn  Zn1       1.0  0.00000  0.50000  1.00000  1.0000
  Zn  Zn2       1.0  1.00000  1.00000  0.50000  1.0000
  H   H1        1.0  0.70822  0.11207  0.79813  1.0000
  H   H2        1.0  0.81272  0.90933  0.70158  1.0000
  H   H3        1.0  0.29181  0.88794  0.20189  1.0000
  H   H4        1.0  0.18727  0.09067  0.29842  1.0000
  H   H5        1.0  0.95245  0.73540  0.03846  1.0000
  H   H6        1.0  0.19742  0.91457  0.46142  1.0000
  H   H7        1.0  0.04756  0.26460  0.96154  1.0000
  H   H8        1.0  0.80258  0.08543  0.53859  1.0000
  H   H9        1.0  0.99009  0.65835  0.16335  1.0000
  H   H10       1.0  0.99569  0.82793  0.33636  1.0000
  H   H11       1.0  0.00991  0.34165  0.83665  1.0000
  H   H12       1.0  0.00432  0.17206  0.66365  1.0000
  C   C1        1.0  0.45442  0.90960  0.71163  1.0000
  C   C2        1.0  0.69670  0.74188  0.78827  1.0000
  C   C3        1.0  0.54559  0.09041  0.28837  1.0000
  C   C4        1.0  0.30329  0.25812  0.21173  1.0000
  C   C5        1.0  0.38824  0.80963  0.78520  1.0000
  C   C6        1.0  0.52343  0.60235  0.71483  1.0000
  C   C7        1.0  0.61176  0.19038  0.21480  1.0000
  C   C8        1.0  0.47656  0.39764  0.28517  1.0000
  C   C9        1.0  0.51778  0.86719  0.92793  1.0000
  C   C10       1.0  0.43867  0.58940  0.57206  1.0000
  C   C11       1.0  0.48221  0.13281  0.07207  1.0000
  C   C12       1.0  0.56132  0.41059  0.42794  1.0000
  C   C13       1.0  0.67554  0.00600  0.94776  1.0000
  C   C14       1.0  0.55760  0.72727  0.55210  1.0000
  C   C15       1.0  0.32447  0.99400  0.05225  1.0000
  C   C16       1.0  0.44239  0.27272  0.44789  1.0000
  C   C17       1.0  0.51847  0.82114  0.04317  1.0000
  C   C18       1.0  0.27783  0.47509  0.45689  1.0000
  C   C19       1.0  0.48154  0.17885  0.95682  1.0000
  C   C20       1.0  0.72216  0.52491  0.54310  1.0000
  C   C21       1.0  0.66583  0.89012  0.18238  1.0000
  C   C22       1.0  0.20793  0.48343  0.31764  1.0000
  C   C23       1.0  0.33416  0.10988  0.81762  1.0000
  C   C24       1.0  0.79206  0.51657  0.68236  1.0000
  C   C25       1.0  0.36529  0.70669  0.02770  1.0000
  C   C26       1.0  0.17887  0.33739  0.47234  1.0000
  C   C27       1.0  0.63472  0.29331  0.97230  1.0000
  C   C28       1.0  0.82112  0.66261  0.52765  1.0000
  C   C29       1.0  0.22671  0.67366  0.71964  1.0000
  C   C30       1.0  0.45261  0.50624  0.78032  1.0000
  C   C31       1.0  0.77329  0.32636  0.28035  1.0000
  C   C32       1.0  0.54738  0.49375  0.21968  1.0000
  N   N1        1.0  0.62608  0.02395  0.81488  1.0000
  N   N2        1.0  0.70801  0.81045  0.68492  1.0000
  N   N3        1.0  0.37393  0.97606  0.18513  1.0000
  N   N4        1.0  0.29199  0.18955  0.31508  1.0000
  N   N5        1.0  0.23676  0.61784  0.01730  1.0000
  N   N6        1.0  0.10028  0.21917  0.48245  1.0000
  N   N7        1.0  0.76324  0.38216  0.98269  1.0000
  N   N8        1.0  0.89972  0.78082  0.51755  1.0000
  N   N9        1.0  0.77555  0.93900  0.30215  1.0000
  N   N10       1.0  0.13706  0.47331  0.19779  1.0000
  N   N11       1.0  0.22443  0.06100  0.69785  1.0000
  N   N12       1.0  0.86293  0.52669  0.80220  1.0000
  N   N13       1.0  0.09844  0.55591  0.67215  1.0000
  N   N14       1.0  0.38192  0.42532  0.82766  1.0000
  N   N15       1.0  0.90156  0.44410  0.32784  1.0000
  N   N16       1.0  0.61807  0.57467  0.17234  1.0000
  O   O1        1.0  0.38055  0.89866  0.58493  1.0000
  O   O2        1.0  0.81215  0.79445  0.91495  1.0000
  O   O3        1.0  0.61947  0.10137  0.41508  1.0000
  O   O4        1.0  0.18783  0.20554  0.08505  1.0000
  O   O5        1.0  0.81617  0.08679  0.05892  1.0000
  O   O6        1.0  0.52746  0.75689  0.44085  1.0000
  O   O7        1.0  0.18382  0.91320  0.94109  1.0000
  O   O8        1.0  0.47254  0.24310  0.55915  1.0000
  O   O9        1.0  0.03636  0.70385  0.10852  1.0000
  O   O10       1.0  0.09596  0.92867  0.39149  1.0000
  O   O11       1.0  0.96364  0.29615  0.89149  1.0000
  O   O12       1.0  0.90404  0.07132  0.60851  1.0000
