data_image0
_chemical_formula_structural       Mn2H30C32N2O10
_chemical_formula_sum              "Mn2 H30 C32 N2 O10"
_cell_length_a       7.59189
_cell_length_b       8.13393
_cell_length_c       13.5622
_cell_angle_alpha    77.9243
_cell_angle_beta     75.185
_cell_angle_gamma    63.8238

_space_group_name_H-M_alt    "P 1"
_space_group_IT_number       1

loop_
  _space_group_symop_operation_xyz
  'x, y, z'

loop_
  _atom_site_type_symbol
  _atom_site_label
  _atom_site_symmetry_multiplicity
  _atom_site_fract_x
  _atom_site_fract_y
  _atom_site_fract_z
  _atom_site_occupancy
  Mn  Mn1       1.0  0.26034  0.66790  0.93499  1.0000
  Mn  Mn2       1.0  0.73965  0.33211  0.06501  1.0000
  H   H1        1.0  0.90050  0.65931  0.06544  1.0000
  H   H2        1.0  0.09950  0.34068  0.93456  1.0000
  H   H3        1.0  0.95231  0.82237  0.08256  1.0000
  H   H4        1.0  0.04768  0.17763  0.91744  1.0000
  H   H5        1.0  0.30644  0.11499  0.75156  1.0000
  H   H6        1.0  0.69357  0.88500  0.24843  1.0000
  H   H7        1.0  0.37229  0.13651  0.56035  1.0000
  H   H8        1.0  0.62773  0.86345  0.43964  1.0000
  H   H9        1.0  0.70022  0.13196  0.46125  1.0000
  H   H10       1.0  0.29981  0.86799  0.53874  1.0000
  H   H11       1.0  0.94816  0.12342  0.55366  1.0000
  H   H12       1.0  0.05185  0.87656  0.44634  1.0000
  H   H13       1.0  0.84553  0.23860  0.80326  1.0000
  H   H14       1.0  0.15446  0.76140  0.19674  1.0000
  H   H15       1.0  0.02961  0.15878  0.69553  1.0000
  H   H16       1.0  0.97038  0.84123  0.30447  1.0000
  H   H17       1.0  0.42016  0.04208  0.90208  1.0000
  H   H18       1.0  0.57983  0.95794  0.09791  1.0000
  H   H19       1.0  0.67396  0.98300  0.90586  1.0000
  H   H20       1.0  0.32604  0.01701  0.09413  1.0000
  H   H21       1.0  0.35422  0.58595  0.71347  1.0000
  H   H22       1.0  0.64578  0.41405  0.28652  1.0000
  H   H23       1.0  0.62059  0.52812  0.55877  1.0000
  H   H24       1.0  0.37942  0.47188  0.44124  1.0000
  H   H25       1.0  0.96848  0.63589  0.72616  1.0000
  H   H26       1.0  0.03152  0.36410  0.27384  1.0000
  H   H27       1.0  0.69154  0.68074  0.87375  1.0000
  H   H28       1.0  0.30846  0.31925  0.12626  1.0000
  H   H29       1.0  0.11825  0.55412  0.55476  1.0000
  H   H30       1.0  0.88175  0.44589  0.44525  1.0000
  C   C1        1.0  0.76819  0.11574  0.70387  1.0000
  C   C2        1.0  0.23182  0.88426  0.29613  1.0000
  C   C3        1.0  0.58635  0.11062  0.76019  1.0000
  C   C4        1.0  0.41365  0.88938  0.23980  1.0000
  C   C5        1.0  0.44588  0.11971  0.70707  1.0000
  C   C6        1.0  0.55413  0.88028  0.29292  1.0000
  C   C7        1.0  0.48383  0.12922  0.60026  1.0000
  C   C8        1.0  0.51620  0.87075  0.39973  1.0000
  C   C9        1.0  0.66707  0.12691  0.54476  1.0000
  C   C10       1.0  0.33295  0.87306  0.45523  1.0000
  C   C11       1.0  0.80656  0.12086  0.59690  1.0000
  C   C12       1.0  0.19345  0.87913  0.40310  1.0000
  C   C13       1.0  0.91678  0.12547  0.75470  1.0000
  C   C14       1.0  0.08322  0.87453  0.24530  1.0000
  C   C15       1.0  0.03313  0.95334  0.81990  1.0000
  C   C16       1.0  0.96686  0.04667  0.18010  1.0000
  C   C17       1.0  0.54182  0.08870  0.87648  1.0000
  C   C18       1.0  0.45818  0.91131  0.12351  1.0000
  C   C19       1.0  0.47910  0.26455  0.92475  1.0000
  C   C20       1.0  0.52089  0.73545  0.07525  1.0000
  C   C21       1.0  0.49391  0.59448  0.71253  1.0000
  C   C22       1.0  0.50607  0.40554  0.28747  1.0000
  C   C23       1.0  0.64377  0.56275  0.62631  1.0000
  C   C24       1.0  0.35623  0.43727  0.37369  1.0000
  C   C25       1.0  0.82316  0.57318  0.62826  1.0000
  C   C26       1.0  0.17684  0.42683  0.37174  1.0000
  C   C27       1.0  0.83695  0.62064  0.71890  1.0000
  C   C28       1.0  0.16305  0.37937  0.28110  1.0000
  C   C29       1.0  0.67976  0.64917  0.80217  1.0000
  C   C30       1.0  0.32023  0.35083  0.19783  1.0000
  C   C31       1.0  0.99286  0.53235  0.54359  1.0000
  C   C32       1.0  0.00714  0.46765  0.45642  1.0000
  N   N1        1.0  0.51011  0.63592  0.80034  1.0000
  N   N2        1.0  0.48988  0.36409  0.19966  1.0000
  O   O1        1.0  0.12417  0.97410  0.88148  1.0000
  O   O2        1.0  0.87582  0.02590  0.11852  1.0000
  O   O3        1.0  0.04687  0.79571  0.81237  1.0000
  O   O4        1.0  0.95311  0.20429  0.18763  1.0000
  O   O5        1.0  0.60369  0.27952  0.96481  1.0000
  O   O6        1.0  0.39630  0.72048  0.03519  1.0000
  O   O7        1.0  0.30270  0.39097  0.92159  1.0000
  O   O8        1.0  0.69729  0.60904  0.07841  1.0000
  O   O9        1.0  0.01170  0.69695  0.05811  1.0000
  O   O10       1.0  0.98829  0.30305  0.94189  1.0000
