data_image0
_chemical_formula_structural       Cd2H16C24S4N4O8
_chemical_formula_sum              "Cd2 H16 C24 S4 N4 O8"
_cell_length_a       3.71084
_cell_length_b       12.3936
_cell_length_c       13.9756
_cell_angle_alpha    89.9998
_cell_angle_beta     90.0004
_cell_angle_gamma    97.8315

_space_group_name_H-M_alt    "P 1"
_space_group_IT_number       1

loop_
  _space_group_symop_operation_xyz
  'x, y, z'

loop_
  _atom_site_type_symbol
  _atom_site_label
  _atom_site_symmetry_multiplicity
  _atom_site_fract_x
  _atom_site_fract_y
  _atom_site_fract_z
  _atom_site_occupancy
  Cd  Cd1       1.0  0.50000  0.00000  0.50000  1.0000
  Cd  Cd2       1.0  0.50000  0.50000  0.00000  1.0000
  H   H1        1.0  0.62949  0.50858  0.64542  1.0000
  H   H2        1.0  0.37051  0.99142  0.14542  1.0000
  H   H3        1.0  0.37050  0.49142  0.35458  1.0000
  H   H4        1.0  0.62949  0.00858  0.85458  1.0000
  H   H5        1.0  0.74492  0.39041  0.78759  1.0000
  H   H6        1.0  0.25508  0.10959  0.28759  1.0000
  H   H7        1.0  0.25508  0.60959  0.21241  1.0000
  H   H8        1.0  0.74492  0.89040  0.71241  1.0000
  H   H9        1.0  0.69829  0.42886  0.48058  1.0000
  H   H10       1.0  0.30171  0.07115  0.98059  1.0000
  H   H11       1.0  0.30171  0.57114  0.51942  1.0000
  H   H12       1.0  0.69830  0.92885  0.01941  1.0000
  H   H13       1.0  0.90807  0.22300  0.76683  1.0000
  H   H14       1.0  0.09192  0.27700  0.26683  1.0000
  H   H15       1.0  0.09193  0.77700  0.23317  1.0000
  H   H16       1.0  0.90808  0.72299  0.73317  1.0000
  C   C1        1.0  0.69649  0.42664  0.63548  1.0000
  C   C2        1.0  0.30353  0.07336  0.13548  1.0000
  C   C3        1.0  0.30352  0.57336  0.36452  1.0000
  C   C4        1.0  0.69648  0.92664  0.86452  1.0000
  C   C5        1.0  0.76266  0.36421  0.71372  1.0000
  C   C6        1.0  0.23735  0.13579  0.21372  1.0000
  C   C7        1.0  0.23734  0.63578  0.28628  1.0000
  C   C8        1.0  0.76265  0.86421  0.78628  1.0000
  C   C9        1.0  0.87884  0.24130  0.43098  1.0000
  C   C10       1.0  0.12116  0.25870  0.93098  1.0000
  C   C11       1.0  0.12116  0.75870  0.56902  1.0000
  C   C12       1.0  0.87884  0.74129  0.06902  1.0000
  C   C13       1.0  0.73815  0.38247  0.54500  1.0000
  C   C14       1.0  0.26186  0.11754  0.04500  1.0000
  C   C15       1.0  0.26185  0.61754  0.45500  1.0000
  C   C16       1.0  0.73814  0.88246  0.95500  1.0000
  C   C17       1.0  0.89158  0.21565  0.61486  1.0000
  C   C18       1.0  0.10842  0.28435  0.11486  1.0000
  C   C19       1.0  0.10842  0.78435  0.38514  1.0000
  C   C20       1.0  0.89157  0.71565  0.88514  1.0000
  C   C21       1.0  0.83426  0.27812  0.53282  1.0000
  C   C22       1.0  0.16574  0.22188  0.03282  1.0000
  C   C23       1.0  0.16574  0.72188  0.46718  1.0000
  C   C24       1.0  0.83426  0.77812  0.96718  1.0000
  S   S1        1.0  0.00160  0.08436  0.62042  1.0000
  S   S2        1.0  0.99840  0.41564  0.12042  1.0000
  S   S3        1.0  0.99840  0.91564  0.37958  1.0000
  S   S4        1.0  0.00160  0.58436  0.87958  1.0000
  N   N1        1.0  0.85642  0.26409  0.70159  1.0000
  N   N2        1.0  0.14359  0.23591  0.20159  1.0000
  N   N3        1.0  0.14359  0.73591  0.29841  1.0000
  N   N4        1.0  0.85641  0.76408  0.79841  1.0000
  O   O1        1.0  0.04613  0.31239  0.37595  1.0000
  O   O2        1.0  0.95387  0.18761  0.87595  1.0000
  O   O3        1.0  0.95388  0.68761  0.62404  1.0000
  O   O4        1.0  0.04613  0.81239  0.12405  1.0000
  O   O5        1.0  0.74326  0.14583  0.40485  1.0000
  O   O6        1.0  0.25674  0.35417  0.90485  1.0000
  O   O7        1.0  0.25674  0.85417  0.59515  1.0000
  O   O8        1.0  0.74326  0.64583  0.09515  1.0000
