data_image0
_chemical_formula_structural       Hg2H20C24N8Cl4O4
_chemical_formula_sum              "Hg2 H20 C24 N8 Cl4 O4"
_cell_length_a       4.64557
_cell_length_b       7.24483
_cell_length_c       21.3638
_cell_angle_alpha    95.9956
_cell_angle_beta     89.9999
_cell_angle_gamma    90.0003

_space_group_name_H-M_alt    "P 1"
_space_group_IT_number       1

loop_
  _space_group_symop_operation_xyz
  'x, y, z'

loop_
  _atom_site_type_symbol
  _atom_site_label
  _atom_site_symmetry_multiplicity
  _atom_site_fract_x
  _atom_site_fract_y
  _atom_site_fract_z
  _atom_site_occupancy
  Hg  Hg1       1.0  0.08290  0.75000  0.25000  1.0000
  Hg  Hg2       1.0  0.91710  0.25000  0.75000  1.0000
  H   H1        1.0  0.76237  0.91820  0.02372  1.0000
  H   H2        1.0  0.76237  0.58180  0.47628  1.0000
  H   H3        1.0  0.23763  0.08180  0.97628  1.0000
  H   H4        1.0  0.23763  0.41820  0.52372  1.0000
  H   H5        1.0  0.75068  0.86961  0.13077  1.0000
  H   H6        1.0  0.75067  0.63039  0.36923  1.0000
  H   H7        1.0  0.24932  0.13039  0.86923  1.0000
  H   H8        1.0  0.24933  0.36961  0.63077  1.0000
  H   H9        1.0  0.72742  0.35523  0.19800  1.0000
  H   H10       1.0  0.72741  0.14477  0.30200  1.0000
  H   H11       1.0  0.27260  0.64478  0.80200  1.0000
  H   H12       1.0  0.27258  0.85523  0.69800  1.0000
  H   H13       1.0  0.35507  0.23768  0.11869  1.0000
  H   H14       1.0  0.35507  0.26232  0.38131  1.0000
  H   H15       1.0  0.64493  0.76232  0.88131  1.0000
  H   H16       1.0  0.64492  0.73768  0.61869  1.0000
  H   H17       1.0  0.17630  0.45137  0.04152  1.0000
  H   H18       1.0  0.17631  0.04863  0.45847  1.0000
  H   H19       1.0  0.82370  0.54863  0.95848  1.0000
  H   H20       1.0  0.82370  0.95137  0.54152  1.0000
  C   C1        1.0  0.66150  0.72950  0.12481  1.0000
  C   C2        1.0  0.66149  0.77049  0.37519  1.0000
  C   C3        1.0  0.33851  0.27050  0.87519  1.0000
  C   C4        1.0  0.33851  0.22950  0.62481  1.0000
  C   C5        1.0  0.64521  0.44215  0.16329  1.0000
  C   C6        1.0  0.64520  0.05785  0.33671  1.0000
  C   C7        1.0  0.35480  0.55786  0.83671  1.0000
  C   C8        1.0  0.35479  0.94215  0.66329  1.0000
  C   C9        1.0  0.43969  0.37779  0.11870  1.0000
  C   C10       1.0  0.43969  0.12221  0.38130  1.0000
  C   C11       1.0  0.56031  0.62222  0.88130  1.0000
  C   C12       1.0  0.56031  0.87779  0.61870  1.0000
  C   C13       1.0  0.34115  0.49641  0.07615  1.0000
  C   C14       1.0  0.34114  0.00359  0.42385  1.0000
  C   C15       1.0  0.65886  0.50360  0.92385  1.0000
  C   C16       1.0  0.65886  0.99641  0.57615  1.0000
  C   C17       1.0  0.45769  0.67523  0.07828  1.0000
  C   C18       1.0  0.45768  0.82477  0.42171  1.0000
  C   C19       1.0  0.54231  0.32478  0.92172  1.0000
  C   C20       1.0  0.54231  0.17523  0.57829  1.0000
  C   C21       1.0  0.34996  0.80684  0.03493  1.0000
  C   C22       1.0  0.34995  0.69316  0.46506  1.0000
  C   C23       1.0  0.65005  0.19316  0.96507  1.0000
  C   C24       1.0  0.65004  0.30684  0.53493  1.0000
  N   N1        1.0  0.75078  0.61558  0.16624  1.0000
  N   N2        1.0  0.75077  0.88441  0.33375  1.0000
  N   N3        1.0  0.24923  0.38443  0.83376  1.0000
  N   N4        1.0  0.24923  0.11558  0.66625  1.0000
  N   N5        1.0  0.54189  0.93606  0.01981  1.0000
  N   N6        1.0  0.54189  0.56394  0.48019  1.0000
  N   N7        1.0  0.45811  0.06394  0.98020  1.0000
  N   N8        1.0  0.45811  0.43606  0.51981  1.0000
  Cl  Cl1       1.0  0.17914  0.02712  0.20217  1.0000
  Cl  Cl2       1.0  0.17913  0.47288  0.29783  1.0000
  Cl  Cl3       1.0  0.82086  0.97289  0.79783  1.0000
  Cl  Cl4       1.0  0.82087  0.52712  0.70217  1.0000
  O   O1        1.0  0.09739  0.80105  0.01443  1.0000
  O   O2        1.0  0.09739  0.69895  0.48557  1.0000
  O   O3        1.0  0.90261  0.19896  0.98557  1.0000
  O   O4        1.0  0.90261  0.30105  0.51443  1.0000
