data_image0
_chemical_formula_structural       K4H24C32O12
_chemical_formula_sum              "K4 H24 C32 O12"
_cell_length_a       3.99677
_cell_length_b       11.2813
_cell_length_c       18.1693
_cell_angle_alpha    106.665
_cell_angle_beta     90.0002
_cell_angle_gamma    90.0002

_space_group_name_H-M_alt    "P 1"
_space_group_IT_number       1

loop_
  _space_group_symop_operation_xyz
  'x, y, z'

loop_
  _atom_site_type_symbol
  _atom_site_label
  _atom_site_symmetry_multiplicity
  _atom_site_fract_x
  _atom_site_fract_y
  _atom_site_fract_z
  _atom_site_occupancy
  K   K1        1.0  0.69481  0.85158  0.93934  1.0000
  K   K2        1.0  0.19483  0.64842  0.06066  1.0000
  K   K3        1.0  0.30517  0.14842  0.06066  1.0000
  K   K4        1.0  0.80517  0.35157  0.93934  1.0000
  H   H1        1.0  0.71254  0.74700  0.19681  1.0000
  H   H2        1.0  0.21254  0.75300  0.80319  1.0000
  H   H3        1.0  0.28747  0.25300  0.80319  1.0000
  H   H4        1.0  0.78746  0.24700  0.19682  1.0000
  H   H5        1.0  0.90818  0.74840  0.32651  1.0000
  H   H6        1.0  0.40819  0.75160  0.67349  1.0000
  H   H7        1.0  0.09182  0.25160  0.67350  1.0000
  H   H8        1.0  0.59181  0.24841  0.32651  1.0000
  H   H9        1.0  0.31018  0.11504  0.35944  1.0000
  H   H10       1.0  0.81017  0.38495  0.64056  1.0000
  H   H11       1.0  0.68983  0.88495  0.64056  1.0000
  H   H12       1.0  0.18982  0.61505  0.35944  1.0000
  H   H13       1.0  0.10915  0.11283  0.23089  1.0000
  H   H14       1.0  0.60915  0.38717  0.76911  1.0000
  H   H15       1.0  0.89085  0.88717  0.76911  1.0000
  H   H16       1.0  0.39085  0.61283  0.23089  1.0000
  H   H17       1.0  0.27167  0.10376  0.48933  1.0000
  H   H18       1.0  0.77167  0.39624  0.51067  1.0000
  H   H19       1.0  0.72833  0.89624  0.51067  1.0000
  H   H20       1.0  0.22833  0.60376  0.48933  1.0000
  H   H21       1.0  0.63955  0.04559  0.43393  1.0000
  H   H22       1.0  0.13955  0.45441  0.56607  1.0000
  H   H23       1.0  0.36045  0.95441  0.56607  1.0000
  H   H24       1.0  0.86045  0.54559  0.43393  1.0000
  C   C1        1.0  0.78306  0.92471  0.12437  1.0000
  C   C2        1.0  0.28305  0.57529  0.87563  1.0000
  C   C3        1.0  0.21694  0.07528  0.87563  1.0000
  C   C4        1.0  0.71694  0.42472  0.12437  1.0000
  C   C5        1.0  0.89773  0.92970  0.20427  1.0000
  C   C6        1.0  0.39773  0.57030  0.79573  1.0000
  C   C7        1.0  0.10228  0.07030  0.79573  1.0000
  C   C8        1.0  0.60227  0.42970  0.20427  1.0000
  C   C9        1.0  0.84309  0.82783  0.23273  1.0000
  C   C10       1.0  0.34310  0.67217  0.76727  1.0000
  C   C11       1.0  0.15691  0.17217  0.76727  1.0000
  C   C12       1.0  0.65690  0.32783  0.23273  1.0000
  C   C13       1.0  0.95482  0.82755  0.30493  1.0000
  C   C14       1.0  0.45483  0.67244  0.69507  1.0000
  C   C15       1.0  0.04518  0.17244  0.69507  1.0000
  C   C16       1.0  0.54518  0.32756  0.30493  1.0000
  C   C17       1.0  0.13013  0.93011  0.35060  1.0000
  C   C18       1.0  0.63013  0.56990  0.64940  1.0000
  C   C19       1.0  0.86988  0.06989  0.64940  1.0000
  C   C20       1.0  0.36988  0.43011  0.35060  1.0000
  C   C21       1.0  0.17944  0.03397  0.32426  1.0000
  C   C22       1.0  0.67944  0.46603  0.67574  1.0000
  C   C23       1.0  0.82056  0.96603  0.67574  1.0000
  C   C24       1.0  0.32056  0.53397  0.32426  1.0000
  C   C25       1.0  0.06456  0.03257  0.25148  1.0000
  C   C26       1.0  0.56455  0.46743  0.74852  1.0000
  C   C27       1.0  0.93545  0.96743  0.74852  1.0000
  C   C28       1.0  0.43544  0.53257  0.25148  1.0000
  C   C29       1.0  0.43263  0.02190  0.46712  1.0000
  C   C30       1.0  0.93264  0.47810  0.53288  1.0000
  C   C31       1.0  0.56736  0.97810  0.53288  1.0000
  C   C32       1.0  0.06736  0.52190  0.46712  1.0000
  O   O1        1.0  0.81116  0.02161  0.10196  1.0000
  O   O2        1.0  0.31117  0.47839  0.89804  1.0000
  O   O3        1.0  0.18884  0.97839  0.89804  1.0000
  O   O4        1.0  0.68884  0.52161  0.10196  1.0000
  O   O5        1.0  0.66798  0.82184  0.08265  1.0000
  O   O6        1.0  0.16796  0.67816  0.91735  1.0000
  O   O7        1.0  0.33202  0.17816  0.91735  1.0000
  O   O8        1.0  0.83201  0.32184  0.08265  1.0000
  O   O9        1.0  0.24306  0.92066  0.41997  1.0000
  O   O10       1.0  0.74307  0.57934  0.58003  1.0000
  O   O11       1.0  0.75693  0.07934  0.58003  1.0000
  O   O12       1.0  0.25693  0.42066  0.41997  1.0000
