data_image0
_chemical_formula_structural       K2H14C16N6O5
_chemical_formula_sum              "K2 H14 C16 N6 O5"
_cell_length_a       4.47431
_cell_length_b       6.52112
_cell_length_c       17.418
_cell_angle_alpha    81.0059
_cell_angle_beta     82.6306
_cell_angle_gamma    68.7913

_space_group_name_H-M_alt    "P 1"
_space_group_IT_number       1

loop_
  _space_group_symop_operation_xyz
  'x, y, z'

loop_
  _atom_site_type_symbol
  _atom_site_label
  _atom_site_symmetry_multiplicity
  _atom_site_fract_x
  _atom_site_fract_y
  _atom_site_fract_z
  _atom_site_occupancy
  K   K1        1.0  0.88649  0.32206  0.92897  1.0000
  K   K2        1.0  0.12675  0.68058  0.07047  1.0000
  H   H1        1.0  0.54288  0.95174  0.95921  1.0000
  H   H2        1.0  0.44678  0.05491  0.03844  1.0000
  H   H3        1.0  0.12476  0.69752  0.76367  1.0000
  H   H4        1.0  0.57428  0.30844  0.23409  1.0000
  H   H5        1.0  0.79032  0.87309  0.81693  1.0000
  H   H6        1.0  0.47704  0.13532  0.17990  1.0000
  H   H7        1.0  0.35329  0.53481  0.59298  1.0000
  H   H8        1.0  0.45911  0.46137  0.41322  1.0000
  H   H9        1.0  0.79008  0.25754  0.51883  1.0000
  H   H10       1.0  0.55583  0.73478  0.48420  1.0000
  H   H11       1.0  0.90608  0.85819  0.55351  1.0000
  H   H12       1.0  0.32359  0.13465  0.44422  1.0000
  H   H13       1.0  0.60320  0.71109  0.66540  1.0000
  H   H14       1.0  0.98878  0.28657  0.33056  1.0000
  C   C1        1.0  0.23065  0.77326  0.87261  1.0000
  C   C2        1.0  0.87840  0.22545  0.12681  1.0000
  C   C3        1.0  0.04692  0.83705  0.79837  1.0000
  C   C4        1.0  0.67748  0.16757  0.19995  1.0000
  C   C5        1.0  0.29593  0.04570  0.68874  1.0000
  C   C6        1.0  0.02458  0.95421  0.31123  1.0000
  C   C7        1.0  0.22787  0.27618  0.66958  1.0000
  C   C8        1.0  0.16061  0.72320  0.33302  1.0000
  C   C9        1.0  0.40309  0.35751  0.60748  1.0000
  C   C10       1.0  0.35283  0.63907  0.39635  1.0000
  C   C11       1.0  0.64375  0.20283  0.56671  1.0000
  C   C12       1.0  0.40451  0.79162  0.43536  1.0000
  C   C13       1.0  0.71091  0.97236  0.58687  1.0000
  C   C14       1.0  0.27060  0.02245  0.41217  1.0000
  C   C15       1.0  0.53997  0.88862  0.64802  1.0000
  C   C16       1.0  0.07849  0.10913  0.34992  1.0000
  N   N1        1.0  0.07941  0.03086  0.75031  1.0000
  N   N2        1.0  0.85360  0.97220  0.24940  1.0000
  N   N3        1.0  0.89584  0.23655  0.76864  1.0000
  N   N4        1.0  0.88748  0.76741  0.23313  1.0000
  N   N5        1.0  0.98095  0.38513  0.72074  1.0000
  N   N6        1.0  0.06974  0.61687  0.28277  1.0000
  O   O1        1.0  0.24304  0.59033  0.91193  1.0000
  O   O2        1.0  0.75097  0.41180  0.08785  1.0000
  O   O3        1.0  0.62863  0.00913  0.99788  1.0000
  O   O4        1.0  0.34683  0.91071  0.88898  1.0000
  O   O5        1.0  0.14919  0.08014  0.11057  1.0000
