data_image0
_chemical_formula_structural       Hg2H10C8N6Cl4
_chemical_formula_sum              "Hg2 H10 C8 N6 Cl4"
_cell_length_a       3.84829
_cell_length_b       7.00626
_cell_length_c       13.8955
_cell_angle_alpha    89.9979
_cell_angle_beta     90.001
_cell_angle_gamma    99.0745

_space_group_name_H-M_alt    "P 1"
_space_group_IT_number       1

loop_
  _space_group_symop_operation_xyz
  'x, y, z'

loop_
  _atom_site_type_symbol
  _atom_site_label
  _atom_site_symmetry_multiplicity
  _atom_site_fract_x
  _atom_site_fract_y
  _atom_site_fract_z
  _atom_site_occupancy
  Hg  Hg1       1.0  1.00000  0.00000  0.50000  1.0000
  Hg  Hg2       1.0  0.00001  1.00000  0.00000  1.0000
  H   H1        1.0  0.71161  0.13018  0.31299  1.0000
  H   H2        1.0  0.28841  0.86981  0.81299  1.0000
  H   H3        1.0  0.28843  0.86982  0.68700  1.0000
  H   H4        1.0  0.71161  0.13018  0.18701  1.0000
  H   H5        1.0  0.20318  0.41273  0.25001  1.0000
  H   H6        1.0  0.79680  0.58728  0.75000  1.0000
  H   H7        1.0  0.12195  0.59050  0.40518  1.0000
  H   H8        1.0  0.87806  0.40946  0.90517  1.0000
  H   H9        1.0  0.87809  0.40952  0.59482  1.0000
  H   H10       1.0  0.12190  0.59050  0.09483  1.0000
  C   C1        1.0  0.91444  0.90765  0.25001  1.0000
  C   C2        1.0  0.08554  0.09234  0.75000  1.0000
  C   C3        1.0  0.12345  0.55477  0.25001  1.0000
  C   C4        1.0  0.87657  0.44525  0.75000  1.0000
  C   C5        1.0  0.07487  0.65188  0.33513  1.0000
  C   C6        1.0  0.92516  0.34811  0.83511  1.0000
  C   C7        1.0  0.92512  0.34813  0.66487  1.0000
  C   C8        1.0  0.07484  0.65189  0.16489  1.0000
  N   N1        1.0  0.79412  0.07678  0.25000  1.0000
  N   N2        1.0  0.20589  0.92321  0.74999  1.0000
  N   N3        1.0  0.97457  0.82628  0.33607  1.0000
  N   N4        1.0  0.02539  0.17372  0.83605  1.0000
  N   N5        1.0  0.02542  0.17374  0.66393  1.0000
  N   N6        1.0  0.97456  0.82626  0.16394  1.0000
  Cl  Cl1       1.0  0.50584  0.74848  0.55708  1.0000
  Cl  Cl2       1.0  0.49415  0.25152  0.05707  1.0000
  Cl  Cl3       1.0  0.49417  0.25152  0.44292  1.0000
  Cl  Cl4       1.0  0.50584  0.74848  0.94292  1.0000
