data_image0
_chemical_formula_structural       Cu2H24C32N4O8
_chemical_formula_sum              "Cu2 H24 C32 N4 O8"
_cell_length_a       7.06801
_cell_length_b       9.01632
_cell_length_c       11.8062
_cell_angle_alpha    90.0011
_cell_angle_beta     89.9997
_cell_angle_gamma    107.708

_space_group_name_H-M_alt    "P 1"
_space_group_IT_number       1

loop_
  _space_group_symop_operation_xyz
  'x, y, z'

loop_
  _atom_site_type_symbol
  _atom_site_label
  _atom_site_symmetry_multiplicity
  _atom_site_fract_x
  _atom_site_fract_y
  _atom_site_fract_z
  _atom_site_occupancy
  Cu  Cu1       1.0  0.50000  0.50000  0.50000  1.0000
  Cu  Cu2       1.0  0.50000  0.00000  1.00000  1.0000
  H   H1        1.0  0.54757  0.98346  0.69921  1.0000
  H   H2        1.0  0.45246  0.51656  0.19920  1.0000
  H   H3        1.0  0.45245  0.01655  0.30079  1.0000
  H   H4        1.0  0.54755  0.48345  0.80080  1.0000
  H   H5        1.0  0.14207  0.79651  0.59999  1.0000
  H   H6        1.0  0.85799  0.70348  0.10000  1.0000
  H   H7        1.0  0.85794  0.20349  0.40002  1.0000
  H   H8        1.0  0.14203  0.29652  0.90000  1.0000
  H   H9        1.0  0.49717  0.18471  0.57267  1.0000
  H   H10       1.0  0.50279  0.31529  0.07268  1.0000
  H   H11       1.0  0.50282  0.81529  0.42732  1.0000
  H   H12       1.0  0.49721  0.68472  0.92732  1.0000
  H   H13       1.0  0.09437  0.43422  0.58755  1.0000
  H   H14       1.0  0.90556  0.06576  0.08755  1.0000
  H   H15       1.0  0.90562  0.56578  0.41247  1.0000
  H   H16       1.0  0.09443  0.93423  0.91244  1.0000
  H   H17       1.0  0.82450  0.20139  0.65750  1.0000
  H   H18       1.0  0.17547  0.29857  0.15751  1.0000
  H   H19       1.0  0.17550  0.79860  0.34251  1.0000
  H   H20       1.0  0.82453  0.70142  0.84249  1.0000
  H   H21       1.0  0.89544  0.94484  0.67546  1.0000
  H   H22       1.0  0.10454  0.55514  0.17548  1.0000
  H   H23       1.0  0.10455  0.05515  0.32454  1.0000
  H   H24       1.0  0.89546  0.44486  0.82452  1.0000
  C   C1        1.0  0.48842  0.74131  0.64257  1.0000
  C   C2        1.0  0.51159  0.75868  0.14257  1.0000
  C   C3        1.0  0.51158  0.25869  0.35743  1.0000
  C   C4        1.0  0.48842  0.24132  0.85743  1.0000
  C   C5        1.0  0.43405  0.88660  0.66009  1.0000
  C   C6        1.0  0.56597  0.61343  0.16008  1.0000
  C   C7        1.0  0.56596  0.11340  0.33991  1.0000
  C   C8        1.0  0.43404  0.38658  0.83992  1.0000
  C   C9        1.0  0.25653  0.90025  0.62996  1.0000
  C   C10       1.0  0.74349  0.59977  0.12996  1.0000
  C   C11       1.0  0.74348  0.09975  0.37004  1.0000
  C   C12       1.0  0.25652  0.40024  0.87003  1.0000
  C   C13       1.0  0.20492  0.04543  0.62858  1.0000
  C   C14       1.0  0.79508  0.45456  0.12858  1.0000
  C   C15       1.0  0.79508  0.95457  0.37142  1.0000
  C   C16       1.0  0.20492  0.54544  0.87142  1.0000
  C   C17       1.0  0.34675  0.18342  0.59344  1.0000
  C   C18       1.0  0.65323  0.31658  0.09344  1.0000
  C   C19       1.0  0.65324  0.81659  0.40656  1.0000
  C   C20       1.0  0.34677  0.68342  0.90655  1.0000
  C   C21       1.0  0.11911  0.32189  0.59987  1.0000
  C   C22       1.0  0.88086  0.17809  0.09987  1.0000
  C   C23       1.0  0.88088  0.67811  0.40015  1.0000
  C   C24       1.0  0.11915  0.82190  0.90013  1.0000
  C   C25       1.0  0.97048  0.19130  0.63766  1.0000
  C   C26       1.0  0.02948  0.30867  0.13766  1.0000
  C   C27       1.0  0.02952  0.80870  0.36235  1.0000
  C   C28       1.0  0.97052  0.69132  0.86234  1.0000
  C   C29       1.0  0.01163  0.05057  0.65003  1.0000
  C   C30       1.0  0.98834  0.44941  0.15004  1.0000
  C   C31       1.0  0.98836  0.94943  0.34997  1.0000
  C   C32       1.0  0.01165  0.55058  0.84995  1.0000
  N   N1        1.0  0.30383  0.31684  0.57670  1.0000
  N   N2        1.0  0.69612  0.18315  0.07670  1.0000
  N   N3        1.0  0.69615  0.68316  0.42330  1.0000
  N   N4        1.0  0.30387  0.81685  0.92329  1.0000
  O   O1        1.0  0.37324  0.63989  0.57382  1.0000
  O   O2        1.0  0.62676  0.86012  0.07382  1.0000
  O   O3        1.0  0.62676  0.36011  0.42618  1.0000
  O   O4        1.0  0.37324  0.13988  0.92617  1.0000
  O   O5        1.0  0.64288  0.72642  0.68699  1.0000
  O   O6        1.0  0.35713  0.77358  0.18699  1.0000
  O   O7        1.0  0.35711  0.27358  0.31300  1.0000
  O   O8        1.0  0.64289  0.22643  0.81302  1.0000
