data_image0
_chemical_formula_structural       Cu2H26C38N6O8
_chemical_formula_sum              "Cu2 H26 C38 N6 O8"
_cell_length_a       7.74451
_cell_length_b       10.1343
_cell_length_c       12.8918
_cell_angle_alpha    74.9343
_cell_angle_beta     95.7743
_cell_angle_gamma    87.1357

_space_group_name_H-M_alt    "P 1"
_space_group_IT_number       1

loop_
  _space_group_symop_operation_xyz
  'x, y, z'

loop_
  _atom_site_type_symbol
  _atom_site_label
  _atom_site_symmetry_multiplicity
  _atom_site_fract_x
  _atom_site_fract_y
  _atom_site_fract_z
  _atom_site_occupancy
  Cu  Cu1       1.0  0.72734  0.65388  0.71749  1.0000
  Cu  Cu2       1.0  0.27267  0.34611  0.28251  1.0000
  H   H1        1.0  0.54784  0.82102  0.49434  1.0000
  H   H2        1.0  0.45213  0.17898  0.50566  1.0000
  H   H3        1.0  0.50866  0.78211  0.30890  1.0000
  H   H4        1.0  0.49129  0.21788  0.69110  1.0000
  H   H5        1.0  0.63990  0.55910  0.28486  1.0000
  H   H6        1.0  0.36009  0.44091  0.71514  1.0000
  H   H7        1.0  0.80645  0.39146  0.44162  1.0000
  H   H8        1.0  0.19355  0.60856  0.55838  1.0000
  H   H9        1.0  0.92897  0.24776  0.59540  1.0000
  H   H10       1.0  0.07104  0.75225  0.40460  1.0000
  H   H11       1.0  0.01745  0.09890  0.78320  1.0000
  H   H12       1.0  0.98258  0.90111  0.21679  1.0000
  H   H13       1.0  0.96363  0.18658  0.94311  1.0000
  H   H14       1.0  0.03641  0.81342  0.05688  1.0000
  H   H15       1.0  0.89274  0.29274  0.07223  1.0000
  H   H16       1.0  0.10722  0.70725  0.92776  1.0000
  H   H17       1.0  0.78498  0.42305  0.19072  1.0000
  H   H18       1.0  0.21501  0.57694  0.80928  1.0000
  H   H19       1.0  0.64146  0.66401  0.10815  1.0000
  H   H20       1.0  0.35855  0.33598  0.89186  1.0000
  H   H21       1.0  0.61428  0.75793  0.90497  1.0000
  H   H22       1.0  0.38571  0.24206  0.09504  1.0000
  H   H23       1.0  0.36304  0.02685  0.65614  1.0000
  H   H24       1.0  0.63698  0.97315  0.34387  1.0000
  H   H25       1.0  0.05251  0.03045  0.60812  1.0000
  H   H26       1.0  0.94752  0.96955  0.39188  1.0000
  C   C1        1.0  0.60165  0.72751  0.47879  1.0000
  C   C2        1.0  0.39832  0.27249  0.52122  1.0000
  C   C3        1.0  0.58265  0.70527  0.37597  1.0000
  C   C4        1.0  0.41731  0.29472  0.62404  1.0000
  C   C5        1.0  0.65658  0.58368  0.36231  1.0000
  C   C6        1.0  0.34340  0.41631  0.63769  1.0000
  C   C7        1.0  0.74815  0.48751  0.45087  1.0000
  C   C8        1.0  0.25184  0.51250  0.54912  1.0000
  C   C9        1.0  0.75831  0.51548  0.55151  1.0000
  C   C10       1.0  0.24168  0.48452  0.44848  1.0000
  C   C11       1.0  0.83418  0.41739  0.65349  1.0000
  C   C12       1.0  0.16582  0.58262  0.34650  1.0000
  C   C13       1.0  0.90991  0.28491  0.66619  1.0000
  C   C14       1.0  0.09010  0.71510  0.33380  1.0000
  C   C15       1.0  0.95883  0.20270  0.77141  1.0000
  C   C16       1.0  0.04119  0.79731  0.22858  1.0000
  C   C17       1.0  0.92963  0.25107  0.86087  1.0000
  C   C18       1.0  0.07038  0.74893  0.13912  1.0000
  C   C19       1.0  0.85515  0.38488  0.84264  1.0000
  C   C20       1.0  0.14485  0.61512  0.15737  1.0000
  C   C21       1.0  0.80576  0.45349  0.92443  1.0000
  C   C22       1.0  0.19423  0.54651  0.07556  1.0000
  C   C23       1.0  0.82839  0.39488  0.03600  1.0000
  C   C24       1.0  0.17159  0.60511  0.96400  1.0000
  C   C25       1.0  0.76990  0.47028  0.10379  1.0000
  C   C26       1.0  0.23009  0.52970  0.89621  1.0000
  C   C27       1.0  0.69009  0.60210  0.05803  1.0000
  C   C28       1.0  0.30990  0.39790  0.94197  1.0000
  C   C29       1.0  0.67372  0.65533  0.94609  1.0000
  C   C30       1.0  0.32628  0.34467  0.05391  1.0000
  C   C31       1.0  0.42246  0.80532  0.68875  1.0000
  C   C32       1.0  0.57756  0.19467  0.31127  1.0000
  C   C33       1.0  0.30278  0.93090  0.66172  1.0000
  C   C34       1.0  0.69726  0.06910  0.33829  1.0000
  C   C35       1.0  0.12989  0.93187  0.63710  1.0000
  C   C36       1.0  0.87013  0.06814  0.36290  1.0000
  C   C37       1.0  0.02772  0.80984  0.63752  1.0000
  C   C38       1.0  0.97228  0.19016  0.36247  1.0000
  N   N1        1.0  0.68568  0.63448  0.56410  1.0000
  N   N2        1.0  0.31431  0.36551  0.43590  1.0000
  N   N3        1.0  0.81487  0.46361  0.74077  1.0000
  N   N4        1.0  0.18512  0.53639  0.25922  1.0000
  N   N5        1.0  0.73003  0.58280  0.88138  1.0000
  N   N6        1.0  0.26997  0.41720  0.11863  1.0000
  O   O1        1.0  0.58801  0.82676  0.69828  1.0000
  O   O2        1.0  0.41200  0.17323  0.30173  1.0000
  O   O3        1.0  0.36854  0.68866  0.69813  1.0000
  O   O4        1.0  0.63147  0.31134  0.30188  1.0000
  O   O5        1.0  0.96294  0.75857  0.72548  1.0000
  O   O6        1.0  0.03706  0.24144  0.27451  1.0000
  O   O7        1.0  0.00467  0.77476  0.55074  1.0000
  O   O8        1.0  0.99535  0.22526  0.44926  1.0000
