data_image0
_chemical_formula_structural       Cu4H32C24O32
_chemical_formula_sum              "Cu4 H32 C24 O32"
_cell_length_a       6.90239
_cell_length_b       8.11014
_cell_length_c       15.1229
_cell_angle_alpha    89.9999
_cell_angle_beta     90.0001
_cell_angle_gamma    95.4075

_space_group_name_H-M_alt    "P 1"
_space_group_IT_number       1

loop_
  _space_group_symop_operation_xyz
  'x, y, z'

loop_
  _atom_site_type_symbol
  _atom_site_label
  _atom_site_symmetry_multiplicity
  _atom_site_fract_x
  _atom_site_fract_y
  _atom_site_fract_z
  _atom_site_occupancy
  Cu  Cu1       1.0  0.74778  0.33273  0.31849  1.0000
  Cu  Cu2       1.0  0.25222  0.16726  0.81849  1.0000
  Cu  Cu3       1.0  0.25222  0.66727  0.68151  1.0000
  Cu  Cu4       1.0  0.74778  0.83273  0.18151  1.0000
  H   H1        1.0  0.76951  0.77905  0.52694  1.0000
  H   H2        1.0  0.23048  0.72094  0.02694  1.0000
  H   H3        1.0  0.23049  0.22095  0.47306  1.0000
  H   H4        1.0  0.76951  0.27906  0.97306  1.0000
  H   H5        1.0  0.78071  0.98279  0.66917  1.0000
  H   H6        1.0  0.21929  0.51720  0.16917  1.0000
  H   H7        1.0  0.21930  0.01721  0.33083  1.0000
  H   H8        1.0  0.78071  0.48280  0.83083  1.0000
  H   H9        1.0  0.39456  0.27256  0.28056  1.0000
  H   H10       1.0  0.60544  0.22744  0.78056  1.0000
  H   H11       1.0  0.60544  0.72744  0.71944  1.0000
  H   H12       1.0  0.39456  0.77256  0.21944  1.0000
  H   H13       1.0  0.40480  0.40514  0.36340  1.0000
  H   H14       1.0  0.59520  0.09487  0.86340  1.0000
  H   H15       1.0  0.59520  0.59487  0.63660  1.0000
  H   H16       1.0  0.40481  0.90513  0.13660  1.0000
  H   H17       1.0  0.08050  0.28102  0.25446  1.0000
  H   H18       1.0  0.91950  0.21898  0.75446  1.0000
  H   H19       1.0  0.91950  0.71898  0.74554  1.0000
  H   H20       1.0  0.08050  0.78102  0.24554  1.0000
  H   H21       1.0  0.09077  0.46279  0.29970  1.0000
  H   H22       1.0  0.90923  0.03720  0.79970  1.0000
  H   H23       1.0  0.90923  0.53720  0.70030  1.0000
  H   H24       1.0  0.09077  0.96279  0.20030  1.0000
  H   H25       1.0  0.73461  0.49955  0.46225  1.0000
  H   H26       1.0  0.26539  0.00045  0.96225  1.0000
  H   H27       1.0  0.26539  0.50045  0.53775  1.0000
  H   H28       1.0  0.73461  0.99955  0.03775  1.0000
  H   H29       1.0  0.74583  0.63510  0.38221  1.0000
  H   H30       1.0  0.25417  0.86490  0.88221  1.0000
  H   H31       1.0  0.25417  0.36490  0.61779  1.0000
  H   H32       1.0  0.74584  0.13509  0.11779  1.0000
  C   C1        1.0  0.72767  0.96951  0.35844  1.0000
  C   C2        1.0  0.27233  0.53050  0.85845  1.0000
  C   C3        1.0  0.27233  0.03049  0.64156  1.0000
  C   C4        1.0  0.72767  0.46950  0.14155  1.0000
  C   C5        1.0  0.73910  0.00928  0.45322  1.0000
  C   C6        1.0  0.26091  0.49072  0.95322  1.0000
  C   C7        1.0  0.26090  0.99072  0.54678  1.0000
  C   C8        1.0  0.73910  0.50928  0.04678  1.0000
  C   C9        1.0  0.75996  0.91149  0.52635  1.0000
  C   C10       1.0  0.24003  0.58850  0.02635  1.0000
  C   C11       1.0  0.24003  0.08851  0.47365  1.0000
  C   C12       1.0  0.75996  0.41150  0.97365  1.0000
  C   C13       1.0  0.76906  0.01843  0.60053  1.0000
  C   C14       1.0  0.23094  0.48157  0.10054  1.0000
  C   C15       1.0  0.23094  0.98157  0.39946  1.0000
  C   C16       1.0  0.76906  0.51844  0.89946  1.0000
  C   C17       1.0  0.75150  0.17573  0.56898  1.0000
  C   C18       1.0  0.24851  0.32427  0.06898  1.0000
  C   C19       1.0  0.24851  0.82427  0.43102  1.0000
  C   C20       1.0  0.75149  0.67573  0.93102  1.0000
  C   C21       1.0  0.73499  0.33383  0.61433  1.0000
  C   C22       1.0  0.26501  0.16617  0.11434  1.0000
  C   C23       1.0  0.26501  0.66617  0.38567  1.0000
  C   C24       1.0  0.73499  0.83384  0.88567  1.0000
  O   O1        1.0  0.70809  0.81752  0.33654  1.0000
  O   O2        1.0  0.29190  0.68247  0.83654  1.0000
  O   O3        1.0  0.29191  0.18248  0.66346  1.0000
  O   O4        1.0  0.70810  0.31753  0.16345  1.0000
  O   O5        1.0  0.73930  0.08373  0.29983  1.0000
  O   O6        1.0  0.26070  0.41627  0.79983  1.0000
  O   O7        1.0  0.26070  0.91627  0.70017  1.0000
  O   O8        1.0  0.73929  0.58373  0.20017  1.0000
  O   O9        1.0  0.73342  0.17130  0.47859  1.0000
  O   O10       1.0  0.26659  0.32870  0.97858  1.0000
  O   O11       1.0  0.26658  0.82870  0.52142  1.0000
  O   O12       1.0  0.73342  0.67130  0.02141  1.0000
  O   O13       1.0  0.67759  0.45507  0.57196  1.0000
  O   O14       1.0  0.32241  0.04493  0.07196  1.0000
  O   O15       1.0  0.32241  0.54493  0.42805  1.0000
  O   O16       1.0  0.67759  0.95507  0.92804  1.0000
  O   O17       1.0  0.77850  0.34045  0.69739  1.0000
  O   O18       1.0  0.22150  0.15955  0.19739  1.0000
  O   O19       1.0  0.22151  0.65955  0.30261  1.0000
  O   O20       1.0  0.77850  0.84045  0.80261  1.0000
  O   O21       1.0  0.46754  0.31192  0.33366  1.0000
  O   O22       1.0  0.53246  0.18809  0.83366  1.0000
  O   O23       1.0  0.53246  0.68809  0.66634  1.0000
  O   O24       1.0  0.46754  0.81191  0.16634  1.0000
  O   O25       1.0  0.02904  0.34689  0.30374  1.0000
  O   O26       1.0  0.97096  0.15311  0.80374  1.0000
  O   O27       1.0  0.97096  0.65311  0.69626  1.0000
  O   O28       1.0  0.02904  0.84689  0.19626  1.0000
  O   O29       1.0  0.78992  0.52744  0.40263  1.0000
  O   O30       1.0  0.21008  0.97256  0.90263  1.0000
  O   O31       1.0  0.21008  0.47257  0.59737  1.0000
  O   O32       1.0  0.78993  0.02743  0.09737  1.0000
