data_image0
_chemical_formula_structural       Zn4H32C24O32
_chemical_formula_sum              "Zn4 H32 C24 O32"
_cell_length_a       8.28438
_cell_length_b       7.25952
_cell_length_c       14.9303
_cell_angle_alpha    89.9951
_cell_angle_beta     90.0005
_cell_angle_gamma    89.9989

_space_group_name_H-M_alt    "P 1"
_space_group_IT_number       1

loop_
  _space_group_symop_operation_xyz
  'x, y, z'

loop_
  _atom_site_type_symbol
  _atom_site_label
  _atom_site_symmetry_multiplicity
  _atom_site_fract_x
  _atom_site_fract_y
  _atom_site_fract_z
  _atom_site_occupancy
  Zn  Zn1       1.0  0.33898  0.75002  0.19323  1.0000
  Zn  Zn2       1.0  0.16102  0.25002  0.69323  1.0000
  Zn  Zn3       1.0  0.83898  0.74998  0.30677  1.0000
  Zn  Zn4       1.0  0.66101  0.24998  0.80677  1.0000
  H   H1        1.0  0.28077  0.75000  0.52872  1.0000
  H   H2        1.0  0.21923  0.24999  0.02871  1.0000
  H   H3        1.0  0.78077  0.74999  0.97129  1.0000
  H   H4        1.0  0.71923  0.24999  0.47129  1.0000
  H   H5        1.0  0.47687  0.74998  0.67452  1.0000
  H   H6        1.0  0.02313  0.24999  0.17451  1.0000
  H   H7        1.0  0.97686  0.75002  0.82549  1.0000
  H   H8        1.0  0.52314  0.25001  0.32548  1.0000
  H   H9        1.0  0.28264  0.10404  0.22557  1.0000
  H   H10       1.0  0.21733  0.89602  0.72558  1.0000
  H   H11       1.0  0.78264  0.39597  0.27442  1.0000
  H   H12       1.0  0.71734  0.60398  0.77443  1.0000
  H   H13       1.0  0.71736  0.89597  0.77443  1.0000
  H   H14       1.0  0.78267  0.10397  0.27442  1.0000
  H   H15       1.0  0.21735  0.60403  0.72558  1.0000
  H   H16       1.0  0.28266  0.39602  0.22557  1.0000
  H   H17       1.0  0.41508  0.09567  0.14606  1.0000
  H   H18       1.0  0.08491  0.90436  0.64605  1.0000
  H   H19       1.0  0.91507  0.40433  0.35394  1.0000
  H   H20       1.0  0.58491  0.59565  0.85395  1.0000
  H   H21       1.0  0.58492  0.90433  0.85395  1.0000
  H   H22       1.0  0.91509  0.09565  0.35396  1.0000
  H   H23       1.0  0.08493  0.59568  0.64605  1.0000
  H   H24       1.0  0.41509  0.40436  0.14605  1.0000
  H   H25       1.0  0.49733  0.75002  0.03189  1.0000
  H   H26       1.0  0.00268  0.25002  0.53188  1.0000
  H   H27       1.0  0.99733  0.74997  0.46812  1.0000
  H   H28       1.0  0.50267  0.24998  0.96811  1.0000
  H   H29       1.0  0.63490  0.75002  0.11277  1.0000
  H   H30       1.0  0.86510  0.25002  0.61276  1.0000
  H   H31       1.0  0.13490  0.74998  0.38724  1.0000
  H   H32       1.0  0.36510  0.24998  0.88723  1.0000
  C   C1        1.0  0.47496  0.75003  0.35887  1.0000
  C   C2        1.0  0.02504  0.25002  0.85886  1.0000
  C   C3        1.0  0.97497  0.74998  0.14114  1.0000
  C   C4        1.0  0.52503  0.24997  0.64113  1.0000
  C   C5        1.0  0.51069  0.75002  0.45484  1.0000
  C   C6        1.0  0.98932  0.25003  0.95483  1.0000
  C   C7        1.0  0.01068  0.74998  0.04516  1.0000
  C   C8        1.0  0.48931  0.24997  0.54516  1.0000
  C   C9        1.0  0.41140  0.75000  0.52885  1.0000
  C   C10       1.0  0.08861  0.25001  0.02884  1.0000
  C   C11       1.0  0.91139  0.74999  0.97116  1.0000
  C   C12       1.0  0.58860  0.24998  0.47115  1.0000
  C   C13       1.0  0.51344  0.74999  0.60477  1.0000
  C   C14       1.0  0.98657  0.24999  0.10476  1.0000
  C   C15       1.0  0.01343  0.75000  0.89524  1.0000
  C   C16       1.0  0.48656  0.25000  0.39523  1.0000
  C   C17       1.0  0.66972  0.75001  0.57300  1.0000
  C   C18       1.0  0.83028  0.25002  0.07299  1.0000
  C   C19       1.0  0.16972  0.75000  0.92701  1.0000
  C   C20       1.0  0.33028  0.24999  0.42700  1.0000
  C   C21       1.0  0.82367  0.75001  0.62173  1.0000
  C   C22       1.0  0.67633  0.25002  0.12172  1.0000
  C   C23       1.0  0.32366  0.75000  0.87828  1.0000
  C   C24       1.0  0.17633  0.24999  0.37827  1.0000
  O   O1        1.0  0.32596  0.75003  0.33512  1.0000
  O   O2        1.0  0.17404  0.25003  0.83511  1.0000
  O   O3        1.0  0.82596  0.74998  0.16489  1.0000
  O   O4        1.0  0.67404  0.24997  0.66488  1.0000
  O   O5        1.0  0.58645  0.75002  0.30066  1.0000
  O   O6        1.0  0.91355  0.25001  0.80064  1.0000
  O   O7        1.0  0.08645  0.75000  0.19936  1.0000
  O   O8        1.0  0.41355  0.24999  0.69935  1.0000
  O   O9        1.0  0.95822  0.75007  0.57957  1.0000
  O   O10       1.0  0.54178  0.25007  0.07956  1.0000
  O   O11       1.0  0.45822  0.74994  0.92044  1.0000
  O   O12       1.0  0.04178  0.24993  0.42043  1.0000
  O   O13       1.0  0.81586  0.74996  0.70702  1.0000
  O   O14       1.0  0.68416  0.24997  0.20701  1.0000
  O   O15       1.0  0.31585  0.75004  0.79299  1.0000
  O   O16       1.0  0.18413  0.25004  0.29298  1.0000
  O   O17       1.0  0.66962  0.75003  0.48096  1.0000
  O   O18       1.0  0.83038  0.25003  0.98094  1.0000
  O   O19       1.0  0.16962  0.74999  0.01906  1.0000
  O   O20       1.0  0.33038  0.24997  0.51905  1.0000
  O   O21       1.0  0.32718  0.02753  0.17615  1.0000
  O   O22       1.0  0.17279  0.97253  0.67615  1.0000
  O   O23       1.0  0.82716  0.47247  0.32385  1.0000
  O   O24       1.0  0.67278  0.52747  0.82385  1.0000
  O   O25       1.0  0.67283  0.97247  0.82385  1.0000
  O   O26       1.0  0.82722  0.02747  0.32385  1.0000
  O   O27       1.0  0.17282  0.52753  0.67615  1.0000
  O   O28       1.0  0.32721  0.47253  0.17615  1.0000
  O   O29       1.0  0.51855  0.75015  0.09757  1.0000
  O   O30       1.0  0.98145  0.25015  0.59757  1.0000
  O   O31       1.0  0.01855  0.74980  0.40243  1.0000
  O   O32       1.0  0.48145  0.24982  0.90243  1.0000
