data_image0
_chemical_formula_structural       SrH18C20N12O2
_chemical_formula_sum              "Sr1 H18 C20 N12 O2"
_cell_length_a       8.05063
_cell_length_b       8.0671
_cell_length_c       8.98489
_cell_angle_alpha    101.771
_cell_angle_beta     91.754
_cell_angle_gamma    108.131

_space_group_name_H-M_alt    "P 1"
_space_group_IT_number       1

loop_
  _space_group_symop_operation_xyz
  'x, y, z'

loop_
  _atom_site_type_symbol
  _atom_site_label
  _atom_site_symmetry_multiplicity
  _atom_site_fract_x
  _atom_site_fract_y
  _atom_site_fract_z
  _atom_site_occupancy
  Sr  Sr1       1.0  0.50000  0.50000  0.50000  1.0000
  H   H1        1.0  0.15030  0.24234  0.61711  1.0000
  H   H2        1.0  0.84969  0.75766  0.38289  1.0000
  H   H3        1.0  0.25568  0.11989  0.53751  1.0000
  H   H4        1.0  0.74431  0.88011  0.46249  1.0000
  H   H5        1.0  0.14595  0.46062  0.89808  1.0000
  H   H6        1.0  0.85405  0.53937  0.10192  1.0000
  H   H7        1.0  0.32293  0.75837  0.05155  1.0000
  H   H8        1.0  0.67707  0.24163  0.94844  1.0000
  H   H9        1.0  0.05311  0.00547  0.78675  1.0000
  H   H10       1.0  0.94690  0.99453  0.21326  1.0000
  H   H11       1.0  0.88799  0.71111  0.62871  1.0000
  H   H12       1.0  0.11201  0.28890  0.37130  1.0000
  H   H13       1.0  0.35969  0.01718  0.23670  1.0000
  H   H14       1.0  0.64032  0.98282  0.76330  1.0000
  H   H15       1.0  0.42908  0.51021  0.11770  1.0000
  H   H16       1.0  0.57093  0.48979  0.88230  1.0000
  H   H17       1.0  0.27939  0.23763  0.86042  1.0000
  H   H18       1.0  0.72061  0.76237  0.13958  1.0000
  C   C1        1.0  0.89474  0.38980  0.66042  1.0000
  C   C2        1.0  0.10526  0.61020  0.33958  1.0000
  C   C3        1.0  0.00417  0.56366  0.75166  1.0000
  C   C4        1.0  0.99583  0.43635  0.24834  1.0000
  C   C5        1.0  0.12825  0.58021  0.87170  1.0000
  C   C6        1.0  0.87175  0.41979  0.12830  1.0000
  C   C7        1.0  0.22575  0.74782  0.96003  1.0000
  C   C8        1.0  0.77426  0.25218  0.03996  1.0000
  C   C9        1.0  0.19944  0.90165  0.92990  1.0000
  C   C10       1.0  0.80056  0.09836  0.07011  1.0000
  C   C11       1.0  0.07641  0.88711  0.81058  1.0000
  C   C12       1.0  0.92359  0.11289  0.18942  1.0000
  C   C13       1.0  0.98156  0.71987  0.72218  1.0000
  C   C14       1.0  0.01844  0.28013  0.27782  1.0000
  C   C15       1.0  0.36106  0.11589  0.17064  1.0000
  C   C16       1.0  0.63895  0.88411  0.82936  1.0000
  C   C17       1.0  0.39210  0.36653  0.10439  1.0000
  C   C18       1.0  0.60790  0.63346  0.89561  1.0000
  C   C19       1.0  0.31467  0.23436  0.97702  1.0000
  C   C20       1.0  0.68534  0.76564  0.02298  1.0000
  N   N1        1.0  0.92939  0.23436  0.64387  1.0000
  N   N2        1.0  0.07061  0.76565  0.35613  1.0000
  N   N3        1.0  0.79132  0.11096  0.55123  1.0000
  N   N4        1.0  0.20867  0.88904  0.44877  1.0000
  N   N5        1.0  0.67846  0.18739  0.51369  1.0000
  N   N6        1.0  0.32154  0.81261  0.48631  1.0000
  N   N7        1.0  0.73988  0.36313  0.58033  1.0000
  N   N8        1.0  0.26012  0.63687  0.41967  1.0000
  N   N9        1.0  0.29373  0.07409  0.02065  1.0000
  N   N10       1.0  0.70628  0.92591  0.97935  1.0000
  N   N11       1.0  0.42081  0.29188  0.22408  1.0000
  N   N12       1.0  0.57920  0.70811  0.77592  1.0000
  O   O1        1.0  0.27114  0.24728  0.58987  1.0000
  O   O2        1.0  0.72885  0.75272  0.41014  1.0000
