data_image0
_chemical_formula_structural       HgH10C12N2Cl2O4
_chemical_formula_sum              "Hg1 H10 C12 N2 Cl2 O4"
_cell_length_a       3.86196
_cell_length_b       6.29973
_cell_length_c       14.6468
_cell_angle_alpha    98.2511
_cell_angle_beta     96.0947
_cell_angle_gamma    95.6031

_space_group_name_H-M_alt    "P 1"
_space_group_IT_number       1

loop_
  _space_group_symop_operation_xyz
  'x, y, z'

loop_
  _atom_site_type_symbol
  _atom_site_label
  _atom_site_symmetry_multiplicity
  _atom_site_fract_x
  _atom_site_fract_y
  _atom_site_fract_z
  _atom_site_occupancy
  Hg  Hg1       1.0  0.50005  0.00002  0.50000  1.0000
  H   H1        1.0  0.68966  0.52232  0.38759  1.0000
  H   H2        1.0  0.31036  0.47771  0.61241  1.0000
  H   H3        1.0  0.71253  0.31980  0.22839  1.0000
  H   H4        1.0  0.28744  0.68022  0.77162  1.0000
  H   H5        1.0  0.48324  0.48030  0.08937  1.0000
  H   H6        1.0  0.51670  0.51967  0.91063  1.0000
  H   H7        1.0  0.23577  0.01749  0.28129  1.0000
  H   H8        1.0  0.76422  0.98251  0.71871  1.0000
  H   H9        1.0  0.10889  0.85323  0.96396  1.0000
  H   H10       1.0  0.89109  0.14675  0.03604  1.0000
  C   C1        1.0  0.59079  0.58498  0.32543  1.0000
  C   C2        1.0  0.40923  0.41502  0.67457  1.0000
  C   C3        1.0  0.60288  0.47326  0.23648  1.0000
  C   C4        1.0  0.39711  0.52673  0.76352  1.0000
  C   C5        1.0  0.47705  0.56262  0.15975  1.0000
  C   C6        1.0  0.52294  0.43736  0.84026  1.0000
  C   C7        1.0  0.34182  0.76188  0.17469  1.0000
  C   C8        1.0  0.65817  0.23811  0.82531  1.0000
  C   C9        1.0  0.19644  0.86838  0.09802  1.0000
  C   C10       1.0  0.80352  0.13163  0.90198  1.0000
  C   C11       1.0  0.33989  0.86291  0.26622  1.0000
  C   C12       1.0  0.66011  0.13710  0.73377  1.0000
  N   N1        1.0  0.46162  0.77598  0.33943  1.0000
  N   N2        1.0  0.53840  0.22404  0.66057  1.0000
  Cl  Cl1       1.0  0.91507  0.76305  0.56491  1.0000
  Cl  Cl2       1.0  0.08499  0.23698  0.43509  1.0000
  O   O1        1.0  0.05426  0.03789  0.11353  1.0000
  O   O2        1.0  0.94576  0.96207  0.88646  1.0000
  O   O3        1.0  0.22603  0.77126  0.01344  1.0000
  O   O4        1.0  0.77394  0.22871  0.98656  1.0000
