data_image0
_chemical_formula_structural       Co2H24C28N8Cl8O12
_chemical_formula_sum              "Co2 H24 C28 N8 Cl8 O12"
_cell_length_a       10.5743
_cell_length_b       10.7221
_cell_length_c       10.7198
_cell_angle_alpha    67.7451
_cell_angle_beta     67.0361
_cell_angle_gamma    67.0315

_space_group_name_H-M_alt    "P 1"
_space_group_IT_number       1

loop_
  _space_group_symop_operation_xyz
  'x, y, z'

loop_
  _atom_site_type_symbol
  _atom_site_label
  _atom_site_symmetry_multiplicity
  _atom_site_fract_x
  _atom_site_fract_y
  _atom_site_fract_z
  _atom_site_occupancy
  Co  Co1       1.0  0.50000  1.00000  0.00000  1.0000
  Co  Co2       1.0  1.00000  0.00000  1.00000  1.0000
  H   H1        1.0  0.34338  0.89332  0.93850  1.0000
  H   H2        1.0  0.15662  0.06149  0.10656  1.0000
  H   H3        1.0  0.65662  0.10668  0.06150  1.0000
  H   H4        1.0  0.84338  0.93850  0.89345  1.0000
  H   H5        1.0  0.48228  0.93521  0.80500  1.0000
  H   H6        1.0  0.01774  0.19497  0.06470  1.0000
  H   H7        1.0  0.51772  0.06479  0.19501  1.0000
  H   H8        1.0  0.98226  0.80503  0.93530  1.0000
  H   H9        1.0  0.45019  0.18740  0.69801  1.0000
  H   H10       1.0  0.04982  0.30202  0.81262  1.0000
  H   H11       1.0  0.54982  0.81259  0.30199  1.0000
  H   H12       1.0  0.95018  0.69798  0.18737  1.0000
  H   H13       1.0  0.28485  0.46707  0.67176  1.0000
  H   H14       1.0  0.21515  0.32827  0.53291  1.0000
  H   H15       1.0  0.71516  0.53292  0.32823  1.0000
  H   H16       1.0  0.78485  0.67173  0.46709  1.0000
  H   H17       1.0  0.21649  0.50494  0.91533  1.0000
  H   H18       1.0  0.28352  0.08475  0.49502  1.0000
  H   H19       1.0  0.78352  0.49506  0.08467  1.0000
  H   H20       1.0  0.71648  0.91524  0.50498  1.0000
  H   H21       1.0  0.31998  0.27946  0.08635  1.0000
  H   H22       1.0  0.18006  0.91376  0.72052  1.0000
  H   H23       1.0  0.68003  0.72054  0.91364  1.0000
  H   H24       1.0  0.81994  0.08624  0.27949  1.0000
  C   C1        1.0  0.27565  0.02044  0.29407  1.0000
  C   C2        1.0  0.22435  0.70590  0.97960  1.0000
  C   C3        1.0  0.72435  0.97956  0.70594  1.0000
  C   C4        1.0  0.77565  0.29410  0.02040  1.0000
  C   C5        1.0  0.13147  0.01085  0.39889  1.0000
  C   C6        1.0  0.36852  0.60110  0.98916  1.0000
  C   C7        1.0  0.86853  0.98915  0.60112  1.0000
  C   C8        1.0  0.63147  0.39890  0.01084  1.0000
  C   C9        1.0  0.11494  0.87931  0.48625  1.0000
  C   C10       1.0  0.38506  0.51373  0.12072  1.0000
  C   C11       1.0  0.88506  0.12069  0.51376  1.0000
  C   C12       1.0  0.61494  0.48628  0.87928  1.0000
  C   C13       1.0  0.98396  0.86845  0.58719  1.0000
  C   C14       1.0  0.51605  0.41280  0.13157  1.0000
  C   C15       1.0  0.01604  0.13155  0.41282  1.0000
  C   C16       1.0  0.48395  0.58721  0.86843  1.0000
  C   C17       1.0  0.39958  0.24805  0.77441  1.0000
  C   C18       1.0  0.10046  0.22563  0.75197  1.0000
  C   C19       1.0  0.60042  0.75194  0.22559  1.0000
  C   C20       1.0  0.89954  0.77438  0.24803  1.0000
  C   C21       1.0  0.31796  0.38599  0.76006  1.0000
  C   C22       1.0  0.18206  0.23999  0.61400  1.0000
  C   C23       1.0  0.68205  0.61400  0.23994  1.0000
  C   C24       1.0  0.81794  0.76001  0.38600  1.0000
  C   C25       1.0  0.33297  0.29029  0.97797  1.0000
  C   C26       1.0  0.16707  0.02212  0.70970  1.0000
  C   C27       1.0  0.66704  0.70971  0.02203  1.0000
  C   C28       1.0  0.83293  0.97789  0.29030  1.0000
  N   N1        1.0  0.40818  0.18931  0.91103  1.0000
  N   N2        1.0  0.09188  0.08903  0.81071  1.0000
  N   N3        1.0  0.59183  0.81068  0.08897  1.0000
  N   N4        1.0  0.90812  0.91097  0.18929  1.0000
  N   N5        1.0  0.27610  0.41004  0.88965  1.0000
  N   N6        1.0  0.22393  0.11042  0.58994  1.0000
  N   N7        1.0  0.72391  0.58996  0.11035  1.0000
  N   N8        1.0  0.77607  0.88958  0.41006  1.0000
  Cl  Cl1       1.0  0.25850  0.73212  0.46844  1.0000
  Cl  Cl2       1.0  0.24150  0.53150  0.26792  1.0000
  Cl  Cl3       1.0  0.74150  0.26788  0.53156  1.0000
  Cl  Cl4       1.0  0.75850  0.46850  0.73207  1.0000
  Cl  Cl5       1.0  0.96337  0.70626  0.69387  1.0000
  Cl  Cl6       1.0  0.53665  0.30609  0.29378  1.0000
  Cl  Cl7       1.0  0.03662  0.29374  0.30613  1.0000
  Cl  Cl8       1.0  0.46335  0.69391  0.70622  1.0000
  O   O1        1.0  0.29760  0.00752  0.17402  1.0000
  O   O2        1.0  0.20243  0.82594  0.99246  1.0000
  O   O3        1.0  0.70239  0.99248  0.82599  1.0000
  O   O4        1.0  0.79757  0.17407  0.00753  1.0000
  O   O5        1.0  0.36257  0.03869  0.33595  1.0000
  O   O6        1.0  0.13739  0.66401  0.96143  1.0000
  O   O7        1.0  0.63744  0.96131  0.66405  1.0000
  O   O8        1.0  0.86261  0.33599  0.03857  1.0000
  O   O9        1.0  0.43324  0.92022  0.90687  1.0000
  O   O10       1.0  0.06645  0.09303  0.08020  1.0000
  O   O11       1.0  0.56676  0.07978  0.09314  1.0000
  O   O12       1.0  0.93355  0.90698  0.91980  1.0000
