data_image0
_chemical_formula_structural       Zn4H24C40N32
_chemical_formula_sum              "Zn4 H24 C40 N32"
_cell_length_a       9.22454
_cell_length_b       10.1741
_cell_length_c       12.4385
_cell_angle_alpha    90
_cell_angle_beta     90
_cell_angle_gamma    90

_space_group_name_H-M_alt    "P 1"
_space_group_IT_number       1

loop_
  _space_group_symop_operation_xyz
  'x, y, z'

loop_
  _atom_site_type_symbol
  _atom_site_label
  _atom_site_symmetry_multiplicity
  _atom_site_fract_x
  _atom_site_fract_y
  _atom_site_fract_z
  _atom_site_occupancy
  Zn  Zn1       1.0  0.05948  0.84075  0.63540  1.0000
  Zn  Zn2       1.0  0.55948  0.65925  0.36460  1.0000
  Zn  Zn3       1.0  0.94052  0.34075  0.86460  1.0000
  Zn  Zn4       1.0  0.44052  0.15925  0.13540  1.0000
  H   H1        1.0  0.26694  0.80569  0.43397  1.0000
  H   H2        1.0  0.76694  0.69431  0.56603  1.0000
  H   H3        1.0  0.73306  0.30569  0.06603  1.0000
  H   H4        1.0  0.23306  0.19431  0.93397  1.0000
  H   H5        1.0  0.26333  0.68189  0.83132  1.0000
  H   H6        1.0  0.76333  0.81811  0.16868  1.0000
  H   H7        1.0  0.73667  0.18189  0.66868  1.0000
  H   H8        1.0  0.23667  0.31811  0.33132  1.0000
  H   H9        1.0  0.06146  0.54090  0.69303  1.0000
  H   H10       1.0  0.56146  0.95910  0.30697  1.0000
  H   H11       1.0  0.93854  0.04090  0.80697  1.0000
  H   H12       1.0  0.43854  0.45910  0.19303  1.0000
  H   H13       1.0  0.63874  0.46758  0.77275  1.0000
  H   H14       1.0  0.13874  0.03241  0.22725  1.0000
  H   H15       1.0  0.36126  0.96758  0.72725  1.0000
  H   H16       1.0  0.86126  0.53242  0.27275  1.0000
  H   H17       1.0  0.68787  0.94689  0.97869  1.0000
  H   H18       1.0  0.18787  0.55311  0.02131  1.0000
  H   H19       1.0  0.31213  0.44689  0.52131  1.0000
  H   H20       1.0  0.81213  0.05311  0.47869  1.0000
  H   H21       1.0  0.72126  0.54264  0.01518  1.0000
  H   H22       1.0  0.22126  0.95736  0.98482  1.0000
  H   H23       1.0  0.27874  0.04264  0.48482  1.0000
  H   H24       1.0  0.77874  0.45736  0.51518  1.0000
  C   C1        1.0  0.31497  0.75687  0.50323  1.0000
  C   C2        1.0  0.81497  0.74312  0.49676  1.0000
  C   C3        1.0  0.68503  0.25687  0.99676  1.0000
  C   C4        1.0  0.18503  0.24313  0.00324  1.0000
  C   C5        1.0  0.46119  0.64154  0.60082  1.0000
  C   C6        1.0  0.96119  0.85845  0.39918  1.0000
  C   C7        1.0  0.53881  0.14154  0.89917  1.0000
  C   C8        1.0  0.03881  0.35846  0.10082  1.0000
  C   C9        1.0  0.34538  0.68671  0.66595  1.0000
  C   C10       1.0  0.84538  0.81329  0.33405  1.0000
  C   C11       1.0  0.65462  0.18671  0.83405  1.0000
  C   C12       1.0  0.15462  0.31329  0.16595  1.0000
  C   C13       1.0  0.34528  0.64896  0.77369  1.0000
  C   C14       1.0  0.84528  0.85104  0.22631  1.0000
  C   C15       1.0  0.65472  0.14896  0.72631  1.0000
  C   C16       1.0  0.15471  0.35104  0.27369  1.0000
  C   C17       1.0  0.87519  0.74922  0.83097  1.0000
  C   C18       1.0  0.37520  0.75078  0.16903  1.0000
  C   C19       1.0  0.12480  0.24922  0.66903  1.0000
  C   C20       1.0  0.62481  0.25078  0.33097  1.0000
  C   C21       1.0  0.99086  0.59340  0.74898  1.0000
  C   C22       1.0  0.49086  0.90660  0.25102  1.0000
  C   C23       1.0  0.00914  0.09340  0.75102  1.0000
  C   C24       1.0  0.50914  0.40660  0.24898  1.0000
  C   C25       1.0  0.55508  0.53219  0.74036  1.0000
  C   C26       1.0  0.05508  0.96781  0.25964  1.0000
  C   C27       1.0  0.44492  0.03219  0.75964  1.0000
  C   C28       1.0  0.94492  0.46781  0.24036  1.0000
  C   C29       1.0  0.73355  0.85518  0.94841  1.0000
  C   C30       1.0  0.23355  0.64482  0.05159  1.0000
  C   C31       1.0  0.26645  0.35518  0.55159  1.0000
  C   C32       1.0  0.76645  0.14482  0.44841  1.0000
  C   C33       1.0  0.75112  0.63060  0.97031  1.0000
  C   C34       1.0  0.25112  0.86940  0.02969  1.0000
  C   C35       1.0  0.24888  0.13060  0.52969  1.0000
  C   C36       1.0  0.74888  0.36941  0.47032  1.0000
  C   C37       1.0  0.84534  0.62809  0.88284  1.0000
  C   C38       1.0  0.34534  0.87192  0.11716  1.0000
  C   C39       1.0  0.15466  0.12808  0.61716  1.0000
  C   C40       1.0  0.65466  0.37191  0.38284  1.0000
  N   N1        1.0  0.25370  0.76059  0.60150  1.0000
  N   N2        1.0  0.75370  0.73941  0.39850  1.0000
  N   N3        1.0  0.74630  0.26059  0.89850  1.0000
  N   N4        1.0  0.24630  0.23941  0.10150  1.0000
  N   N5        1.0  0.43973  0.68754  0.49782  1.0000
  N   N6        1.0  0.93973  0.81246  0.50218  1.0000
  N   N7        1.0  0.56027  0.18754  0.00218  1.0000
  N   N8        1.0  0.06027  0.31246  0.99781  1.0000
  N   N9        1.0  0.96758  0.72477  0.74605  1.0000
  N   N10       1.0  0.46758  0.77523  0.25395  1.0000
  N   N11       1.0  0.03242  0.22477  0.75395  1.0000
  N   N12       1.0  0.53242  0.27523  0.24605  1.0000
  N   N13       1.0  0.56926  0.56536  0.63646  1.0000
  N   N14       1.0  0.06926  0.93464  0.36354  1.0000
  N   N15       1.0  0.43074  0.06536  0.86353  1.0000
  N   N16       1.0  0.93074  0.43464  0.13647  1.0000
  N   N17       1.0  0.92120  0.53040  0.82890  1.0000
  N   N18       1.0  0.42120  0.96960  0.17110  1.0000
  N   N19       1.0  0.07880  0.03040  0.67110  1.0000
  N   N20       1.0  0.57880  0.46960  0.32890  1.0000
  N   N21       1.0  0.82040  0.86468  0.86240  1.0000
  N   N22       1.0  0.32040  0.63532  0.13760  1.0000
  N   N23       1.0  0.17960  0.36468  0.63760  1.0000
  N   N24       1.0  0.67960  0.13531  0.36240  1.0000
  N   N25       1.0  0.69572  0.74586  0.00279  1.0000
  N   N26       1.0  0.19572  0.75414  0.99721  1.0000
  N   N27       1.0  0.30428  0.24586  0.49721  1.0000
  N   N28       1.0  0.80428  0.25414  0.50279  1.0000
  N   N29       1.0  0.45075  0.56955  0.80986  1.0000
  N   N30       1.0  0.95076  0.93045  0.19014  1.0000
  N   N31       1.0  0.54925  0.06954  0.69014  1.0000
  N   N32       1.0  0.04924  0.43046  0.30986  1.0000
