data_image0
_chemical_formula_structural       Mn4P4H28C8O32
_chemical_formula_sum              "Mn4 P4 H28 C8 O32"
_cell_length_a       5.84601
_cell_length_b       7.92835
_cell_length_c       15.4903
_cell_angle_alpha    90
_cell_angle_beta     90
_cell_angle_gamma    110.359

_space_group_name_H-M_alt    "P 1"
_space_group_IT_number       1

loop_
  _space_group_symop_operation_xyz
  'x, y, z'

loop_
  _atom_site_type_symbol
  _atom_site_label
  _atom_site_symmetry_multiplicity
  _atom_site_fract_x
  _atom_site_fract_y
  _atom_site_fract_z
  _atom_site_occupancy
  Mn  Mn1       1.0  0.73857  0.48803  0.63524  1.0000
  Mn  Mn2       1.0  0.26144  0.01198  0.13524  1.0000
  Mn  Mn3       1.0  0.26143  0.51197  0.36476  1.0000
  Mn  Mn4       1.0  0.73857  0.98803  0.86476  1.0000
  P   P1        1.0  0.98890  0.16690  0.67877  1.0000
  P   P2        1.0  0.01109  0.33309  0.17877  1.0000
  P   P3        1.0  0.01110  0.83309  0.32123  1.0000
  P   P4        1.0  0.98891  0.66691  0.82123  1.0000
  H   H1        1.0  0.28294  0.51986  0.63187  1.0000
  H   H2        1.0  0.71706  0.98014  0.13187  1.0000
  H   H3        1.0  0.71706  0.48014  0.36813  1.0000
  H   H4        1.0  0.28294  0.01986  0.86813  1.0000
  H   H5        1.0  0.45690  0.67389  0.57176  1.0000
  H   H6        1.0  0.54310  0.82611  0.07176  1.0000
  H   H7        1.0  0.54310  0.32611  0.42824  1.0000
  H   H8        1.0  0.45690  0.17389  0.92824  1.0000
  H   H9        1.0  0.05608  0.79094  0.55255  1.0000
  H   H10       1.0  0.94393  0.70906  0.05255  1.0000
  H   H11       1.0  0.94392  0.20906  0.44745  1.0000
  H   H12       1.0  0.05608  0.29094  0.94745  1.0000
  H   H13       1.0  0.95877  0.64989  0.47758  1.0000
  H   H14       1.0  0.04123  0.85011  0.97758  1.0000
  H   H15       1.0  0.04123  0.35011  0.52242  1.0000
  H   H16       1.0  0.95877  0.14989  0.02242  1.0000
  H   H17       1.0  0.47492  0.23735  0.77618  1.0000
  H   H18       1.0  0.52508  0.26265  0.27618  1.0000
  H   H19       1.0  0.52508  0.76265  0.22382  1.0000
  H   H20       1.0  0.47492  0.73735  0.72382  1.0000
  H   H21       1.0  0.77210  0.99645  0.56853  1.0000
  H   H22       1.0  0.22790  0.50355  0.06853  1.0000
  H   H23       1.0  0.22790  0.00355  0.43147  1.0000
  H   H24       1.0  0.77210  0.49645  0.93147  1.0000
  H   H25       1.0  0.26953  0.00210  0.69419  1.0000
  H   H26       1.0  0.73047  0.49790  0.19419  1.0000
  H   H27       1.0  0.73047  0.99790  0.30581  1.0000
  H   H28       1.0  0.26953  0.50210  0.80581  1.0000
  C   C1        1.0  0.28902  0.13548  0.66796  1.0000
  C   C2        1.0  0.71098  0.36452  0.16796  1.0000
  C   C3        1.0  0.71098  0.86451  0.33204  1.0000
  C   C4        1.0  0.28902  0.63549  0.83204  1.0000
  C   C5        1.0  0.35939  0.14235  0.57319  1.0000
  C   C6        1.0  0.64061  0.35765  0.07319  1.0000
  C   C7        1.0  0.64060  0.85764  0.42681  1.0000
  C   C8        1.0  0.35940  0.64236  0.92681  1.0000
  O   O1        1.0  0.44749  0.61693  0.62961  1.0000
  O   O2        1.0  0.55252  0.88307  0.12961  1.0000
  O   O3        1.0  0.55252  0.38306  0.37039  1.0000
  O   O4        1.0  0.44748  0.11693  0.87039  1.0000
  O   O5        1.0  0.52072  0.28379  0.54378  1.0000
  O   O6        1.0  0.47928  0.21621  0.04378  1.0000
  O   O7        1.0  0.47929  0.71620  0.45622  1.0000
  O   O8        1.0  0.52071  0.78379  0.95622  1.0000
  O   O9        1.0  0.95565  0.66322  0.54122  1.0000
  O   O10       1.0  0.04434  0.83678  0.04122  1.0000
  O   O11       1.0  0.04434  0.33678  0.45878  1.0000
  O   O12       1.0  0.95566  0.16322  0.95878  1.0000
  O   O13       1.0  0.46642  0.27691  0.71496  1.0000
  O   O14       1.0  0.53358  0.22309  0.21496  1.0000
  O   O15       1.0  0.53358  0.72308  0.28504  1.0000
  O   O16       1.0  0.46642  0.77691  0.78504  1.0000
  O   O17       1.0  0.01658  0.34533  0.63248  1.0000
  O   O18       1.0  0.98342  0.15467  0.13248  1.0000
  O   O19       1.0  0.98342  0.65467  0.36752  1.0000
  O   O20       1.0  0.01658  0.84533  0.86752  1.0000
  O   O21       1.0  0.93698  0.16830  0.77413  1.0000
  O   O22       1.0  0.06302  0.33170  0.27413  1.0000
  O   O23       1.0  0.06302  0.83170  0.22588  1.0000
  O   O24       1.0  0.93698  0.66830  0.72587  1.0000
  O   O25       1.0  0.78632  0.00346  0.63535  1.0000
  O   O26       1.0  0.21368  0.49654  0.13535  1.0000
  O   O27       1.0  0.21368  0.99654  0.36465  1.0000
  O   O28       1.0  0.78632  0.50346  0.86465  1.0000
  O   O29       1.0  0.24057  0.00640  0.52829  1.0000
  O   O30       1.0  0.75943  0.49360  0.02829  1.0000
  O   O31       1.0  0.75943  0.99360  0.47171  1.0000
  O   O32       1.0  0.24057  0.50640  0.97171  1.0000
