data_image0
_chemical_formula_structural       CdH16C14N14
_chemical_formula_sum              "Cd1 H16 C14 N14"
_cell_length_a       7.14021
_cell_length_b       9.49788
_cell_length_c       9.3024
_cell_angle_alpha    120.699
_cell_angle_beta     108.678
_cell_angle_gamma    90

_space_group_name_H-M_alt    "P 1"
_space_group_IT_number       1

loop_
  _space_group_symop_operation_xyz
  'x, y, z'

loop_
  _atom_site_type_symbol
  _atom_site_label
  _atom_site_symmetry_multiplicity
  _atom_site_fract_x
  _atom_site_fract_y
  _atom_site_fract_z
  _atom_site_occupancy
  Cd  Cd1       1.0  0.50000  0.00000  0.00000  1.0000
  H   H1        1.0  0.87964  0.80542  0.86108  1.0000
  H   H2        1.0  0.12039  0.94433  0.13895  1.0000
  H   H3        1.0  0.12036  0.19458  0.13892  1.0000
  H   H4        1.0  0.87961  0.05567  0.86105  1.0000
  H   H5        1.0  0.85081  0.46104  0.65432  1.0000
  H   H6        1.0  0.14919  0.80671  0.34569  1.0000
  H   H7        1.0  0.14919  0.53896  0.34568  1.0000
  H   H8        1.0  0.85081  0.19329  0.65431  1.0000
  H   H9        1.0  0.30269  0.56133  0.73658  1.0000
  H   H10       1.0  0.69730  0.82475  0.26341  1.0000
  H   H11       1.0  0.69731  0.43867  0.26342  1.0000
  H   H12       1.0  0.30270  0.17525  0.73659  1.0000
  H   H13       1.0  0.51242  0.22287  0.44573  1.0000
  H   H14       1.0  0.48759  0.77713  0.55427  1.0000
  H   H15       1.0  0.31022  0.26385  0.52770  1.0000
  H   H16       1.0  0.68978  0.73615  0.47230  1.0000
  C   C1        1.0  0.75539  0.70476  0.80667  1.0000
  C   C2        1.0  0.24464  0.89814  0.19343  1.0000
  C   C3        1.0  0.24461  0.29524  0.19333  1.0000
  C   C4        1.0  0.75536  0.10186  0.80657  1.0000
  C   C5        1.0  0.74529  0.53567  0.70572  1.0000
  C   C6        1.0  0.25475  0.83000  0.29436  1.0000
  C   C7        1.0  0.25471  0.46433  0.29428  1.0000
  C   C8        1.0  0.74525  0.17000  0.70563  1.0000
  C   C9        1.0  0.45656  0.58562  0.74701  1.0000
  C   C10       1.0  0.54341  0.83858  0.25295  1.0000
  C   C11       1.0  0.54343  0.41438  0.25299  1.0000
  C   C12       1.0  0.45659  0.16142  0.74705  1.0000
  C   C13       1.0  0.47475  0.28323  0.56645  1.0000
  C   C14       1.0  0.52525  0.71677  0.43355  1.0000
  N   N1        1.0  0.57443  0.73419  0.83053  1.0000
  N   N2        1.0  0.42555  0.90367  0.16949  1.0000
  N   N3        1.0  0.42557  0.26581  0.16947  1.0000
  N   N4        1.0  0.57445  0.09633  0.83051  1.0000
  N   N5        1.0  0.55490  0.46169  0.66912  1.0000
  N   N6        1.0  0.44510  0.79257  0.33089  1.0000
  N   N7        1.0  0.44510  0.53831  0.33088  1.0000
  N   N8        1.0  0.55490  0.20744  0.66911  1.0000
  N   N9        1.0  0.15336  0.90623  0.81245  1.0000
  N   N10       1.0  0.84663  0.09377  0.18754  1.0000
  N   N11       1.0  0.08069  0.82605  0.65210  1.0000
  N   N12       1.0  0.91932  0.17396  0.34790  1.0000
  N   N13       1.0  0.00183  0.74655  0.49312  1.0000
  N   N14       1.0  0.99816  0.25344  0.50687  1.0000
