data_image0
_chemical_formula_structural       Cd4H12C8O12
_chemical_formula_sum              "Cd4 H12 C8 O12"
_cell_length_a       5.71426
_cell_length_b       6.18021
_cell_length_c       10.2081
_cell_angle_alpha    97.2184
_cell_angle_beta     89.9997
_cell_angle_gamma    90

_space_group_name_H-M_alt    "P 1"
_space_group_IT_number       1

loop_
  _space_group_symop_operation_xyz
  'x, y, z'

loop_
  _atom_site_type_symbol
  _atom_site_label
  _atom_site_symmetry_multiplicity
  _atom_site_fract_x
  _atom_site_fract_y
  _atom_site_fract_z
  _atom_site_occupancy
  Cd  Cd1       1.0  0.97864  0.14018  0.86904  1.0000
  Cd  Cd2       1.0  0.47863  0.35983  0.13097  1.0000
  Cd  Cd3       1.0  0.02136  0.85983  0.13096  1.0000
  Cd  Cd4       1.0  0.52137  0.64017  0.86904  1.0000
  H   H1        1.0  0.01357  0.30072  0.12630  1.0000
  H   H2        1.0  0.51358  0.19929  0.87370  1.0000
  H   H3        1.0  0.98642  0.69929  0.87370  1.0000
  H   H4        1.0  0.48642  0.80072  0.12630  1.0000
  H   H5        1.0  0.26029  0.53729  0.53411  1.0000
  H   H6        1.0  0.76031  0.96270  0.46588  1.0000
  H   H7        1.0  0.73970  0.46270  0.46589  1.0000
  H   H8        1.0  0.23972  0.03729  0.53411  1.0000
  H   H9        1.0  0.03105  0.71169  0.59546  1.0000
  H   H10       1.0  0.53105  0.78830  0.40454  1.0000
  H   H11       1.0  0.96895  0.28831  0.40454  1.0000
  H   H12       1.0  0.46896  0.21168  0.59546  1.0000
  C   C1        1.0  0.07348  0.54114  0.55999  1.0000
  C   C2        1.0  0.57348  0.95885  0.44002  1.0000
  C   C3        1.0  0.92652  0.45886  0.44001  1.0000
  C   C4        1.0  0.42651  0.04114  0.55999  1.0000
  C   C5        1.0  0.04414  0.41050  0.67390  1.0000
  C   C6        1.0  0.54412  0.08952  0.32610  1.0000
  C   C7        1.0  0.95586  0.58949  0.32610  1.0000
  C   C8        1.0  0.45587  0.91050  0.67389  1.0000
  O   O1        1.0  0.12175  0.19455  0.07773  1.0000
  O   O2        1.0  0.62176  0.30546  0.92227  1.0000
  O   O3        1.0  0.87824  0.80546  0.92227  1.0000
  O   O4        1.0  0.37824  0.69455  0.07773  1.0000
  O   O5        1.0  0.92106  0.23835  0.66017  1.0000
  O   O6        1.0  0.42106  0.26163  0.33983  1.0000
  O   O7        1.0  0.07895  0.76164  0.33983  1.0000
  O   O8        1.0  0.57893  0.73837  0.66017  1.0000
  O   O9        1.0  0.14623  0.47454  0.78553  1.0000
  O   O10       1.0  0.64624  0.02545  0.21446  1.0000
  O   O11       1.0  0.85376  0.52546  0.21447  1.0000
  O   O12       1.0  0.35378  0.97454  0.78552  1.0000
