data_image0
_chemical_formula_structural       Cd2H22C28N2O12
_chemical_formula_sum              "Cd2 H22 C28 N2 O12"
_cell_length_a       7.03523
_cell_length_b       9.27799
_cell_length_c       12.1031
_cell_angle_alpha    74.6231
_cell_angle_beta     80.4903
_cell_angle_gamma    72.1266

_space_group_name_H-M_alt    "P 1"
_space_group_IT_number       1

loop_
  _space_group_symop_operation_xyz
  'x, y, z'

loop_
  _atom_site_type_symbol
  _atom_site_label
  _atom_site_symmetry_multiplicity
  _atom_site_fract_x
  _atom_site_fract_y
  _atom_site_fract_z
  _atom_site_occupancy
  Cd  Cd1       1.0  0.60276  0.59742  0.85315  1.0000
  Cd  Cd2       1.0  0.39724  0.40258  0.14685  1.0000
  H   H1        1.0  0.59145  0.24047  0.96574  1.0000
  H   H2        1.0  0.40854  0.75954  0.03426  1.0000
  H   H3        1.0  0.24667  0.45520  0.92512  1.0000
  H   H4        1.0  0.75333  0.54480  0.07489  1.0000
  H   H5        1.0  0.17413  0.62316  0.95093  1.0000
  H   H6        1.0  0.82587  0.37684  0.04907  1.0000
  H   H7        1.0  0.80554  0.04174  0.05550  1.0000
  H   H8        1.0  0.19446  0.95826  0.94450  1.0000
  H   H9        1.0  0.60339  0.95485  0.09356  1.0000
  H   H10       1.0  0.39661  0.04515  0.90644  1.0000
  H   H11       1.0  0.81507  0.80626  0.26160  1.0000
  H   H12       1.0  0.18495  0.19374  0.73840  1.0000
  H   H13       1.0  0.86414  0.80192  0.45987  1.0000
  H   H14       1.0  0.13586  0.19807  0.54013  1.0000
  H   H15       1.0  0.54178  0.29142  0.39398  1.0000
  H   H16       1.0  0.45823  0.70858  0.60602  1.0000
  H   H17       1.0  0.84403  0.80093  0.62470  1.0000
  H   H18       1.0  0.15596  0.19907  0.37530  1.0000
  H   H19       1.0  0.82411  0.05720  0.87315  1.0000
  H   H20       1.0  0.17588  0.94280  0.12685  1.0000
  H   H21       1.0  0.64824  0.30590  0.53686  1.0000
  H   H22       1.0  0.35173  0.69410  0.46314  1.0000
  C   C1        1.0  0.65154  0.05575  0.09757  1.0000
  C   C2        1.0  0.34846  0.94425  0.90243  1.0000
  C   C3        1.0  0.66287  0.05151  0.22176  1.0000
  C   C4        1.0  0.33714  0.94849  0.77824  1.0000
  C   C5        1.0  0.75806  0.91195  0.29417  1.0000
  C   C6        1.0  0.24196  0.08804  0.70582  1.0000
  C   C7        1.0  0.78453  0.91035  0.40540  1.0000
  C   C8        1.0  0.21547  0.08964  0.59460  1.0000
  C   C9        1.0  0.71322  0.04789  0.44591  1.0000
  C   C10       1.0  0.28679  0.95211  0.55409  1.0000
  C   C11       1.0  0.61122  0.18069  0.36946  1.0000
  C   C12       1.0  0.38879  0.81930  0.63054  1.0000
  C   C13       1.0  0.74082  0.05263  0.56331  1.0000
  C   C14       1.0  0.25917  0.94736  0.43670  1.0000
  C   C15       1.0  0.81080  0.91406  0.64513  1.0000
  C   C16       1.0  0.18920  0.08594  0.35487  1.0000
  C   C17       1.0  0.84108  0.91532  0.75586  1.0000
  C   C18       1.0  0.15891  0.08468  0.24413  1.0000
  C   C19       1.0  0.79710  0.05680  0.78745  1.0000
  C   C20       1.0  0.20289  0.94320  0.21255  1.0000
  C   C21       1.0  0.72487  0.19634  0.70829  1.0000
  C   C22       1.0  0.27512  0.80367  0.29171  1.0000
  C   C23       1.0  0.69947  0.19412  0.59660  1.0000
  C   C24       1.0  0.30051  0.80588  0.40340  1.0000
  C   C25       1.0  0.68222  0.34780  0.74209  1.0000
  C   C26       1.0  0.31778  0.65220  0.25791  1.0000
  C   C27       1.0  0.92750  0.76543  0.83913  1.0000
  C   C28       1.0  0.07250  0.23457  0.16087  1.0000
  N   N1        1.0  0.58856  0.18215  0.26088  1.0000
  N   N2        1.0  0.41145  0.81785  0.73912  1.0000
  O   O1        1.0  0.52007  0.19564  0.04008  1.0000
  O   O2        1.0  0.47993  0.80436  0.95992  1.0000
  O   O3        1.0  0.29557  0.52373  0.95505  1.0000
  O   O4        1.0  0.70443  0.47627  0.04495  1.0000
  O   O5        1.0  0.68468  0.34060  0.85062  1.0000
  O   O6        1.0  0.31533  0.65939  0.14939  1.0000
  O   O7        1.0  0.64847  0.47463  0.66851  1.0000
  O   O8        1.0  0.35155  0.52537  0.33150  1.0000
  O   O9        1.0  0.01407  0.77378  0.92060  1.0000
  O   O10       1.0  0.98592  0.22622  0.07940  1.0000
  O   O11       1.0  0.91587  0.63845  0.82156  1.0000
  O   O12       1.0  0.08413  0.36155  0.17843  1.0000
