data_image0
_chemical_formula_structural       Cd2H18C28N2O10
_chemical_formula_sum              "Cd2 H18 C28 N2 O10"
_cell_length_a       6.78884
_cell_length_b       7.62636
_cell_length_c       11.9481
_cell_angle_alpha    102.293
_cell_angle_beta     93.851
_cell_angle_gamma    104.68

_space_group_name_H-M_alt    "P 1"
_space_group_IT_number       1

loop_
  _space_group_symop_operation_xyz
  'x, y, z'

loop_
  _atom_site_type_symbol
  _atom_site_label
  _atom_site_symmetry_multiplicity
  _atom_site_fract_x
  _atom_site_fract_y
  _atom_site_fract_z
  _atom_site_occupancy
  Cd  Cd1       1.0  0.20795  0.07708  0.12785  1.0000
  Cd  Cd2       1.0  0.79205  0.92292  0.87215  1.0000
  H   H1        1.0  0.17720  0.29748  0.97198  1.0000
  H   H2        1.0  0.82280  0.70252  0.02802  1.0000
  H   H3        1.0  0.21673  0.57744  0.08093  1.0000
  H   H4        1.0  0.78327  0.42256  0.91907  1.0000
  H   H5        1.0  0.48184  0.59920  0.08745  1.0000
  H   H6        1.0  0.51817  0.40080  0.91255  1.0000
  H   H7        1.0  0.47363  0.81474  0.28019  1.0000
  H   H8        1.0  0.52639  0.18526  0.71981  1.0000
  H   H9        1.0  0.42592  0.83430  0.48643  1.0000
  H   H10       1.0  0.57409  0.16571  0.51357  1.0000
  H   H11       1.0  0.18220  0.23326  0.39557  1.0000
  H   H12       1.0  0.81778  0.76673  0.60443  1.0000
  H   H13       1.0  0.38155  0.83847  0.64584  1.0000
  H   H14       1.0  0.61845  0.16153  0.35416  1.0000
  H   H15       1.0  0.11872  0.56020  0.89704  1.0000
  H   H16       1.0  0.88129  0.43980  0.10296  1.0000
  H   H17       1.0  0.09506  0.24166  0.55231  1.0000
  H   H18       1.0  0.90494  0.75834  0.44769  1.0000
  C   C1        1.0  0.33579  0.51125  0.10348  1.0000
  C   C2        1.0  0.66421  0.48876  0.89652  1.0000
  C   C3        1.0  0.34010  0.51788  0.23022  1.0000
  C   C4        1.0  0.65990  0.48212  0.76978  1.0000
  C   C5        1.0  0.40746  0.69009  0.31054  1.0000
  C   C6        1.0  0.59254  0.30991  0.68947  1.0000
  C   C7        1.0  0.37937  0.69901  0.42501  1.0000
  C   C8        1.0  0.62064  0.30099  0.57499  1.0000
  C   C9        1.0  0.28829  0.53616  0.46074  1.0000
  C   C10       1.0  0.71171  0.46384  0.53926  1.0000
  C   C11       1.0  0.24248  0.36835  0.37611  1.0000
  C   C12       1.0  0.75752  0.63165  0.62388  1.0000
  C   C13       1.0  0.24468  0.53985  0.58089  1.0000
  C   C14       1.0  0.75532  0.46014  0.41910  1.0000
  C   C15       1.0  0.30056  0.70845  0.66583  1.0000
  C   C16       1.0  0.69944  0.29155  0.33417  1.0000
  C   C17       1.0  0.25278  0.71608  0.77815  1.0000
  C   C18       1.0  0.74722  0.28391  0.22185  1.0000
  C   C19       1.0  0.15573  0.55265  0.80932  1.0000
  C   C20       1.0  0.84427  0.44735  0.19068  1.0000
  C   C21       1.0  0.10394  0.38200  0.72767  1.0000
  C   C22       1.0  0.89607  0.61800  0.27233  1.0000
  C   C23       1.0  0.14493  0.37687  0.61397  1.0000
  C   C24       1.0  0.85507  0.62313  0.38603  1.0000
  C   C25       1.0  0.30606  0.89912  0.86612  1.0000
  C   C26       1.0  0.69394  0.10089  0.13387  1.0000
  C   C27       1.0  0.99547  0.20662  0.76032  1.0000
  C   C28       1.0  0.00452  0.79338  0.23968  1.0000
  N   N1        1.0  0.26705  0.35987  0.26458  1.0000
  N   N2        1.0  0.73295  0.64012  0.73542  1.0000
  O   O1        1.0  0.29539  0.32626  0.03445  1.0000
  O   O2        1.0  0.70461  0.67375  0.96555  1.0000
  O   O3        1.0  0.48191  0.01190  0.87239  1.0000
  O   O4        1.0  0.51809  0.98810  0.12762  1.0000
  O   O5        1.0  0.16624  0.92750  0.92892  1.0000
  O   O6        1.0  0.83376  0.07250  0.07108  1.0000
  O   O7        1.0  0.92022  0.05752  0.68486  1.0000
  O   O8        1.0  0.07978  0.94248  0.31514  1.0000
  O   O9        1.0  0.97876  0.21922  0.86945  1.0000
  O   O10       1.0  0.02125  0.78078  0.13056  1.0000
