data_image0
_chemical_formula_structural       Nd2H24C24O24
_chemical_formula_sum              "Nd2 H24 C24 O24"
_cell_length_a       8.10956
_cell_length_b       9.82197
_cell_length_c       10.797
_cell_angle_alpha    74.4216
_cell_angle_beta     73.9681
_cell_angle_gamma    74.5387

_space_group_name_H-M_alt    "P 1"
_space_group_IT_number       1

loop_
  _space_group_symop_operation_xyz
  'x, y, z'

loop_
  _atom_site_type_symbol
  _atom_site_label
  _atom_site_symmetry_multiplicity
  _atom_site_fract_x
  _atom_site_fract_y
  _atom_site_fract_z
  _atom_site_occupancy
  Nd  Nd1       1.0  0.54443  0.30010  0.14402  1.0000
  Nd  Nd2       1.0  0.45557  0.69990  0.85598  1.0000
  H   H1        1.0  0.48767  0.46018  0.71770  1.0000
  H   H2        1.0  0.51234  0.53982  0.28230  1.0000
  H   H3        1.0  0.31297  0.23224  0.46115  1.0000
  H   H4        1.0  0.68704  0.76776  0.53885  1.0000
  H   H5        1.0  0.59158  0.14627  0.52471  1.0000
  H   H6        1.0  0.40842  0.85373  0.47529  1.0000
  H   H7        1.0  0.65090  0.99282  0.16417  1.0000
  H   H8        1.0  0.34910  0.00718  0.83582  1.0000
  H   H9        1.0  0.46366  0.98878  0.25824  1.0000
  H   H10       1.0  0.53634  0.01122  0.74176  1.0000
  H   H11       1.0  0.17985  0.32771  0.11127  1.0000
  H   H12       1.0  0.82014  0.67229  0.88873  1.0000
  H   H13       1.0  0.29344  0.20446  0.02853  1.0000
  H   H14       1.0  0.70656  0.79555  0.97147  1.0000
  H   H15       1.0  0.73028  0.55373  0.09189  1.0000
  H   H16       1.0  0.26972  0.44627  0.90811  1.0000
  H   H17       1.0  0.83720  0.43033  0.19164  1.0000
  H   H18       1.0  0.16280  0.56967  0.80836  1.0000
  H   H19       1.0  0.76359  0.45398  0.40468  1.0000
  H   H20       1.0  0.23641  0.54602  0.59532  1.0000
  H   H21       1.0  0.04556  0.21366  0.78269  1.0000
  H   H22       1.0  0.95444  0.78633  0.21731  1.0000
  H   H23       1.0  0.11280  0.02710  0.25764  1.0000
  H   H24       1.0  0.88720  0.97290  0.74236  1.0000
  C   C1        1.0  0.80796  0.33438  0.72127  1.0000
  C   C2        1.0  0.19204  0.66562  0.27873  1.0000
  C   C3        1.0  0.72724  0.40398  0.61387  1.0000
  C   C4        1.0  0.27276  0.59603  0.38613  1.0000
  C   C5        1.0  0.82819  0.40316  0.48637  1.0000
  C   C6        1.0  0.17182  0.59684  0.51362  1.0000
  C   C7        1.0  0.00761  0.34036  0.46266  1.0000
  C   C8        1.0  0.99239  0.65964  0.53734  1.0000
  C   C9        1.0  0.08921  0.27518  0.57146  1.0000
  C   C10       1.0  0.91079  0.72482  0.42854  1.0000
  C   C11       1.0  0.98588  0.26929  0.69886  1.0000
  C   C12       1.0  0.01413  0.73071  0.30114  1.0000
  C   C13       1.0  0.71078  0.32733  0.86012  1.0000
  C   C14       1.0  0.28922  0.67268  0.13988  1.0000
  C   C15       1.0  0.10987  0.33798  0.32654  1.0000
  C   C16       1.0  0.89013  0.66202  0.67346  1.0000
  C   C17       1.0  0.82064  0.04890  0.55162  1.0000
  C   C18       1.0  0.17936  0.95110  0.44838  1.0000
  C   C19       1.0  0.88715  0.06475  0.41400  1.0000
  C   C20       1.0  0.11285  0.93525  0.58600  1.0000
  C   C21       1.0  0.06547  0.01562  0.36385  1.0000
  C   C22       1.0  0.93453  0.98438  0.63615  1.0000
  C   C23       1.0  0.77040  0.13448  0.32161  1.0000
  C   C24       1.0  0.22960  0.86552  0.67839  1.0000
  O   O1        1.0  0.73113  0.21068  0.94501  1.0000
  O   O2        1.0  0.26887  0.78932  0.05499  1.0000
  O   O3        1.0  0.60626  0.44264  0.89515  1.0000
  O   O4        1.0  0.39374  0.55736  0.10485  1.0000
  O   O5        1.0  0.27753  0.29183  0.31118  1.0000
  O   O6        1.0  0.72247  0.70817  0.68882  1.0000
  O   O7        1.0  0.03714  0.37666  0.22795  1.0000
  O   O8        1.0  0.96286  0.62334  0.77205  1.0000
  O   O9        1.0  0.55492  0.46901  0.62607  1.0000
  O   O10       1.0  0.44508  0.53099  0.37393  1.0000
  O   O11       1.0  0.26202  0.21426  0.55855  1.0000
  O   O12       1.0  0.73798  0.78574  0.44145  1.0000
  O   O13       1.0  0.60910  0.19288  0.36848  1.0000
  O   O14       1.0  0.39090  0.80712  0.63152  1.0000
  O   O15       1.0  0.82457  0.14074  0.19824  1.0000
  O   O16       1.0  0.17542  0.85926  0.80176  1.0000
  O   O17       1.0  0.64721  0.09627  0.60311  1.0000
  O   O18       1.0  0.35279  0.90373  0.39689  1.0000
  O   O19       1.0  0.52767  0.04084  0.17259  1.0000
  O   O20       1.0  0.47233  0.95916  0.82741  1.0000
  O   O21       1.0  0.28865  0.30155  0.03765  1.0000
  O   O22       1.0  0.71134  0.69845  0.96235  1.0000
  O   O23       1.0  0.72414  0.46355  0.16122  1.0000
  O   O24       1.0  0.27586  0.53645  0.83878  1.0000
