data_image0
_chemical_formula_structural       H44Pb4C20N4O8
_chemical_formula_sum              "H44 Pb4 C20 N4 O8"
_cell_length_a       9.50338
_cell_length_b       9.50245
_cell_length_c       10.2594
_cell_angle_alpha    99.2355
_cell_angle_beta     115.367
_cell_angle_gamma    111.373

_space_group_name_H-M_alt    "P 1"
_space_group_IT_number       1

loop_
  _space_group_symop_operation_xyz
  'x, y, z'

loop_
  _atom_site_type_symbol
  _atom_site_label
  _atom_site_symmetry_multiplicity
  _atom_site_fract_x
  _atom_site_fract_y
  _atom_site_fract_z
  _atom_site_occupancy
  H   H1        1.0  0.61739  0.66539  0.32507  1.0000
  H   H2        1.0  0.84042  0.29233  0.17482  1.0000
  H   H3        1.0  0.38261  0.33461  0.67494  1.0000
  H   H4        1.0  0.15958  0.70767  0.82518  1.0000
  H   H5        1.0  0.71506  0.60301  0.23088  1.0000
  H   H6        1.0  0.87220  0.48425  0.26891  1.0000
  H   H7        1.0  0.28495  0.39700  0.76913  1.0000
  H   H8        1.0  0.12780  0.51576  0.73109  1.0000
  H   H9        1.0  0.46781  0.63914  0.04950  1.0000
  H   H10       1.0  0.08969  0.41839  0.45041  1.0000
  H   H11       1.0  0.53219  0.36086  0.95051  1.0000
  H   H12       1.0  0.91031  0.58161  0.54959  1.0000
  H   H13       1.0  0.56565  0.83987  0.18168  1.0000
  H   H14       1.0  0.15826  0.38400  0.31830  1.0000
  H   H15       1.0  0.43435  0.16013  0.81833  1.0000
  H   H16       1.0  0.84174  0.61601  0.68169  1.0000
  H   H17       1.0  0.85577  0.65763  0.87840  1.0000
  H   H18       1.0  0.27930  0.97737  0.62182  1.0000
  H   H19       1.0  0.14423  0.34238  0.12160  1.0000
  H   H20       1.0  0.72070  0.02264  0.37819  1.0000
  H   H21       1.0  0.85047  0.84441  0.88777  1.0000
  H   H22       1.0  0.45675  0.96279  0.61254  1.0000
  H   H23       1.0  0.14952  0.15560  0.11223  1.0000
  H   H24       1.0  0.54325  0.03722  0.38746  1.0000
  H   H25       1.0  0.57973  0.62294  0.85912  1.0000
  H   H26       1.0  0.26368  0.72045  0.64072  1.0000
  H   H27       1.0  0.42027  0.37704  0.14088  1.0000
  H   H28       1.0  0.73632  0.27955  0.35927  1.0000
  H   H29       1.0  0.72372  0.60680  0.03144  1.0000
  H   H30       1.0  0.07537  0.69231  0.46837  1.0000
  H   H31       1.0  0.27629  0.39320  0.96856  1.0000
  H   H32       1.0  0.92463  0.30769  0.53163  1.0000
  H   H33       1.0  0.65226  0.01585  0.07263  1.0000
  H   H34       1.0  0.44330  0.57967  0.42740  1.0000
  H   H35       1.0  0.34773  0.98415  0.92737  1.0000
  H   H36       1.0  0.55670  0.42034  0.57260  1.0000
  H   H37       1.0  0.50793  0.84759  0.88936  1.0000
  H   H38       1.0  0.45827  0.61866  0.61063  1.0000
  H   H39       1.0  0.49207  0.15241  0.11064  1.0000
  H   H40       1.0  0.54173  0.38135  0.38937  1.0000
  H   H41       1.0  0.73541  0.97693  0.95287  1.0000
  H   H42       1.0  0.52417  0.78263  0.54715  1.0000
  H   H43       1.0  0.26458  0.02307  0.04713  1.0000
  H   H44       1.0  0.47583  0.21737  0.45285  1.0000
  Pb  Pb1       1.0  0.03845  0.01561  0.32081  1.0000
  Pb  Pb2       1.0  0.19500  0.71781  0.17924  1.0000
  Pb  Pb3       1.0  0.96154  0.98438  0.67917  1.0000
  Pb  Pb4       1.0  0.80501  0.28222  0.82076  1.0000
  C   C1        1.0  0.70131  0.70859  0.27583  1.0000
  C   C2        1.0  0.93289  0.42555  0.22408  1.0000
  C   C3        1.0  0.29868  0.29141  0.72418  1.0000
  C   C4        1.0  0.06712  0.57445  0.77591  1.0000
  C   C5        1.0  0.59678  0.74862  0.13903  1.0000
  C   C6        1.0  0.10966  0.45780  0.36091  1.0000
  C   C7        1.0  0.40322  0.25138  0.86097  1.0000
  C   C8        1.0  0.89034  0.54221  0.63909  1.0000
  C   C9        1.0  0.86351  0.76215  0.95207  1.0000
  C   C10       1.0  0.31016  0.91151  0.54810  1.0000
  C   C11       1.0  0.13648  0.23785  0.04792  1.0000
  C   C12       1.0  0.68983  0.08849  0.45190  1.0000
  C   C13       1.0  0.70713  0.69248  0.97383  1.0000
  C   C14       1.0  0.21867  0.73331  0.52612  1.0000
  C   C15       1.0  0.29287  0.30751  0.02617  1.0000
  C   C16       1.0  0.78133  0.26669  0.47388  1.0000
  C   C17       1.0  0.64594  0.91908  0.99202  1.0000
  C   C18       1.0  0.42713  0.65397  0.50796  1.0000
  C   C19       1.0  0.35405  0.08092  0.00798  1.0000
  C   C20       1.0  0.57287  0.34603  0.49204  1.0000
  N   N1        1.0  0.70167  0.81793  0.07216  1.0000
  N   N2        1.0  0.24588  0.62961  0.42780  1.0000
  N   N3        1.0  0.29833  0.18206  0.92785  1.0000
  N   N4        1.0  0.75413  0.37039  0.57219  1.0000
  O   O1        1.0  0.86823  0.84223  0.39118  1.0000
  O   O2        1.0  0.95124  0.47703  0.10874  1.0000
  O   O3        1.0  0.13177  0.15777  0.60882  1.0000
  O   O4        1.0  0.04876  0.52297  0.89126  1.0000
  O   O5        1.0  0.02696  0.84589  0.09600  1.0000
  O   O6        1.0  0.25007  0.93116  0.40428  1.0000
  O   O7        1.0  0.97304  0.15411  0.90399  1.0000
  O   O8        1.0  0.74993  0.06885  0.59572  1.0000
