data_image0
_chemical_formula_structural       Zn2H32C32N4O8
_chemical_formula_sum              "Zn2 H32 C32 N4 O8"
_cell_length_a       7.77959
_cell_length_b       7.83835
_cell_length_c       12.85
_cell_angle_alpha    90.0804
_cell_angle_beta     81.2109
_cell_angle_gamma    89.5298

_space_group_name_H-M_alt    "P 1"
_space_group_IT_number       1

loop_
  _space_group_symop_operation_xyz
  'x, y, z'

loop_
  _atom_site_type_symbol
  _atom_site_label
  _atom_site_symmetry_multiplicity
  _atom_site_fract_x
  _atom_site_fract_y
  _atom_site_fract_z
  _atom_site_occupancy
  Zn  Zn1       1.0  0.30902  0.07199  0.32804  1.0000
  Zn  Zn2       1.0  0.69098  0.92801  0.67196  1.0000
  H   H1        1.0  0.68353  0.05738  0.35501  1.0000
  H   H2        1.0  0.31647  0.94262  0.64499  1.0000
  H   H3        1.0  0.98696  0.18498  0.05680  1.0000
  H   H4        1.0  0.01304  0.81503  0.94320  1.0000
  H   H5        1.0  0.42444  0.17147  0.10443  1.0000
  H   H6        1.0  0.57556  0.82852  0.89557  1.0000
  H   H7        1.0  0.57549  0.22011  0.92954  1.0000
  H   H8        1.0  0.42451  0.77988  0.07046  1.0000
  H   H9        1.0  0.79547  0.16397  0.89777  1.0000
  H   H10       1.0  0.20453  0.83603  0.10224  1.0000
  H   H11       1.0  0.74870  0.46703  0.85340  1.0000
  H   H12       1.0  0.25130  0.53297  0.14660  1.0000
  H   H13       1.0  0.88171  0.45737  0.95402  1.0000
  H   H14       1.0  0.11829  0.54263  0.04598  1.0000
  H   H15       1.0  0.65882  0.51407  0.98667  1.0000
  H   H16       1.0  0.34117  0.48593  0.01333  1.0000
  H   H17       1.0  0.36975  0.44522  0.29520  1.0000
  H   H18       1.0  0.63026  0.55478  0.70480  1.0000
  H   H19       1.0  0.18891  0.69596  0.58872  1.0000
  H   H20       1.0  0.81110  0.30404  0.41128  1.0000
  H   H21       1.0  0.17413  0.14771  0.55302  1.0000
  H   H22       1.0  0.82587  0.85229  0.44698  1.0000
  H   H23       1.0  0.02074  0.28433  0.71276  1.0000
  H   H24       1.0  0.97926  0.71567  0.28723  1.0000
  H   H25       1.0  0.01485  0.50813  0.72785  1.0000
  H   H26       1.0  0.98515  0.49187  0.27215  1.0000
  H   H27       1.0  0.18387  0.36994  0.85716  1.0000
  H   H28       1.0  0.81613  0.63006  0.14284  1.0000
  H   H29       1.0  0.31944  0.50565  0.77034  1.0000
  H   H30       1.0  0.68056  0.49435  0.22966  1.0000
  H   H31       1.0  0.33368  0.28182  0.75197  1.0000
  H   H32       1.0  0.66632  0.71818  0.24803  1.0000
  C   C1        1.0  0.69345  0.09231  0.27204  1.0000
  C   C2        1.0  0.30655  0.90769  0.72796  1.0000
  C   C3        1.0  0.85529  0.11694  0.21010  1.0000
  C   C4        1.0  0.14471  0.88306  0.78990  1.0000
  C   C5        1.0  0.86058  0.16451  0.10498  1.0000
  C   C6        1.0  0.13942  0.83549  0.89502  1.0000
  C   C7        1.0  0.70585  0.18609  0.06323  1.0000
  C   C8        1.0  0.29414  0.81391  0.93677  1.0000
  C   C9        1.0  0.55040  0.15782  0.13103  1.0000
  C   C10       1.0  0.44960  0.84218  0.86897  1.0000
  C   C11       1.0  0.01720  0.09504  0.25853  1.0000
  C   C12       1.0  0.98280  0.90496  0.74147  1.0000
  C   C13       1.0  0.70430  0.24281  0.95177  1.0000
  C   C14       1.0  0.29570  0.75719  0.04823  1.0000
  C   C15       1.0  0.75087  0.43163  0.93565  1.0000
  C   C16       1.0  0.24913  0.56837  0.06435  1.0000
  C   C17       1.0  0.31726  0.44063  0.37877  1.0000
  C   C18       1.0  0.68274  0.55937  0.62122  1.0000
  C   C19       1.0  0.28763  0.59069  0.43725  1.0000
  C   C20       1.0  0.71238  0.40931  0.56275  1.0000
  C   C21       1.0  0.21752  0.57849  0.54370  1.0000
  C   C22       1.0  0.78249  0.42151  0.45630  1.0000
  C   C23       1.0  0.17710  0.41886  0.58911  1.0000
  C   C24       1.0  0.82291  0.58115  0.41089  1.0000
  C   C25       1.0  0.20964  0.27547  0.52387  1.0000
  C   C26       1.0  0.79037  0.72453  0.47613  1.0000
  C   C27       1.0  0.31805  0.75920  0.38343  1.0000
  C   C28       1.0  0.68195  0.24080  0.61657  1.0000
  C   C29       1.0  0.10166  0.39910  0.70344  1.0000
  C   C30       1.0  0.89835  0.60090  0.29656  1.0000
  C   C31       1.0  0.24273  0.38807  0.77463  1.0000
  C   C32       1.0  0.75727  0.61193  0.22537  1.0000
  N   N1        1.0  0.54447  0.11274  0.23276  1.0000
  N   N2        1.0  0.45553  0.88726  0.76724  1.0000
  N   N3        1.0  0.27939  0.28686  0.42146  1.0000
  N   N4        1.0  0.72061  0.71314  0.57854  1.0000
  O   O1        1.0  0.16311  0.13722  0.20435  1.0000
  O   O2        1.0  0.83689  0.86278  0.79565  1.0000
  O   O3        1.0  0.00518  0.03778  0.35124  1.0000
  O   O4        1.0  0.99481  0.96222  0.64875  1.0000
  O   O5        1.0  0.32314  0.76702  0.28492  1.0000
  O   O6        1.0  0.67686  0.23298  0.71508  1.0000
  O   O7        1.0  0.33159  0.89153  0.44106  1.0000
  O   O8        1.0  0.66841  0.10847  0.55894  1.0000
