data_image0
_chemical_formula_structural       Ag8H24C40N16
_chemical_formula_sum              "Ag8 H24 C40 N16"
_cell_length_a       6.95329
_cell_length_b       9.77554
_cell_length_c       16.7194
_cell_angle_alpha    84.6698
_cell_angle_beta     83.0099
_cell_angle_gamma    73.9279

_space_group_name_H-M_alt    "P 1"
_space_group_IT_number       1

loop_
  _space_group_symop_operation_xyz
  'x, y, z'

loop_
  _atom_site_type_symbol
  _atom_site_label
  _atom_site_symmetry_multiplicity
  _atom_site_fract_x
  _atom_site_fract_y
  _atom_site_fract_z
  _atom_site_occupancy
  Ag  Ag1       1.0  0.73655  0.00784  0.92238  1.0000
  Ag  Ag2       1.0  0.26345  0.99216  0.07762  1.0000
  Ag  Ag3       1.0  0.37860  0.35032  0.15424  1.0000
  Ag  Ag4       1.0  0.62141  0.64968  0.84576  1.0000
  Ag  Ag5       1.0  0.11655  0.61026  0.42428  1.0000
  Ag  Ag6       1.0  0.88345  0.38975  0.57572  1.0000
  Ag  Ag7       1.0  0.51397  0.27870  0.64912  1.0000
  Ag  Ag8       1.0  0.48602  0.72130  0.35088  1.0000
  H   H1        1.0  0.38418  0.37827  0.81979  1.0000
  H   H2        1.0  0.61582  0.62174  0.18021  1.0000
  H   H3        1.0  0.39849  0.37185  0.96839  1.0000
  H   H4        1.0  0.60150  0.62815  0.03162  1.0000
  H   H5        1.0  0.95435  0.79374  0.82705  1.0000
  H   H6        1.0  0.04564  0.20626  0.17295  1.0000
  H   H7        1.0  0.86069  0.89370  0.09554  1.0000
  H   H8        1.0  0.13933  0.10630  0.90446  1.0000
  H   H9        1.0  0.09290  0.68299  0.16683  1.0000
  H   H10       1.0  0.90710  0.31701  0.83317  1.0000
  H   H11       1.0  0.16082  0.58582  0.74944  1.0000
  H   H12       1.0  0.83918  0.41418  0.25057  1.0000
  H   H13       1.0  0.92554  0.83430  0.32519  1.0000
  H   H14       1.0  0.07446  0.16571  0.67481  1.0000
  H   H15       1.0  0.95214  0.71176  0.59777  1.0000
  H   H16       1.0  0.04786  0.28823  0.40223  1.0000
  H   H17       1.0  0.75380  0.93422  0.66824  1.0000
  H   H18       1.0  0.24620  0.06577  0.33176  1.0000
  H   H19       1.0  0.54679  0.27682  0.46378  1.0000
  H   H20       1.0  0.45321  0.72318  0.53622  1.0000
  H   H21       1.0  0.58061  0.27707  0.31394  1.0000
  H   H22       1.0  0.41939  0.72293  0.68606  1.0000
  H   H23       1.0  0.76686  0.05764  0.24448  1.0000
  H   H24       1.0  0.23314  0.94236  0.75551  1.0000
  C   C1        1.0  0.32908  0.43309  0.58458  1.0000
  C   C2        1.0  0.67090  0.56692  0.41542  1.0000
  C   C3        1.0  0.20936  0.52334  0.31605  1.0000
  C   C4        1.0  0.79065  0.47666  0.68395  1.0000
  C   C5        1.0  0.68533  0.09757  0.81009  1.0000
  C   C6        1.0  0.31467  0.90243  0.18991  1.0000
  C   C7        1.0  0.53548  0.19032  0.08521  1.0000
  C   C8        1.0  0.46452  0.80968  0.91478  1.0000
  C   C9        1.0  0.29269  0.46689  0.85447  1.0000
  C   C10       1.0  0.70731  0.53312  0.14554  1.0000
  C   C11       1.0  0.30173  0.46245  0.93679  1.0000
  C   C12       1.0  0.69826  0.53755  0.06322  1.0000
  C   C13       1.0  0.05025  0.69967  0.85677  1.0000
  C   C14       1.0  0.94975  0.30033  0.14324  1.0000
  C   C15       1.0  0.18454  0.57788  0.98189  1.0000
  C   C16       1.0  0.81546  0.42212  0.01811  1.0000
  C   C17       1.0  0.95546  0.80412  0.06223  1.0000
  C   C18       1.0  0.04455  0.19588  0.93777  1.0000
  C   C19       1.0  0.05650  0.69810  0.94112  1.0000
  C   C20       1.0  0.94350  0.30190  0.05888  1.0000
  C   C21       1.0  0.08385  0.68557  0.10193  1.0000
  C   C22       1.0  0.91616  0.31444  0.89807  1.0000
  C   C23       1.0  0.16643  0.58569  0.81433  1.0000
  C   C24       1.0  0.83357  0.41431  0.18567  1.0000
  C   C25       1.0  0.84026  0.93149  0.35417  1.0000
  C   C26       1.0  0.15973  0.06851  0.64583  1.0000
  C   C27       1.0  0.71191  0.05518  0.47957  1.0000
  C   C28       1.0  0.28809  0.94482  0.52043  1.0000
  C   C29       1.0  0.82131  0.92894  0.43946  1.0000
  C   C30       1.0  0.17869  0.07106  0.56054  1.0000
  C   C31       1.0  0.88236  0.80969  0.56339  1.0000
  C   C32       1.0  0.11764  0.19030  0.43661  1.0000
  C   C33       1.0  0.77220  0.93422  0.60243  1.0000
  C   C34       1.0  0.22781  0.06577  0.39757  1.0000
  C   C35       1.0  0.62714  0.18102  0.43281  1.0000
  C   C36       1.0  0.37287  0.81898  0.56719  1.0000
  C   C37       1.0  0.64817  0.18040  0.34968  1.0000
  C   C38       1.0  0.35182  0.81960  0.65032  1.0000
  C   C39       1.0  0.75418  0.05534  0.31023  1.0000
  C   C40       1.0  0.24581  0.94466  0.68977  1.0000
  N   N1        1.0  0.22386  0.51842  0.54358  1.0000
  N   N2        1.0  0.77614  0.48158  0.45642  1.0000
  N   N3        1.0  0.63784  0.15454  0.74786  1.0000
  N   N4        1.0  0.36216  0.84546  0.25214  1.0000
  N   N5        1.0  0.62590  0.10290  0.04097  1.0000
  N   N6        1.0  0.37410  0.89710  0.95903  1.0000
  N   N7        1.0  0.94102  0.81024  0.98373  1.0000
  N   N8        1.0  0.05898  0.18977  0.01627  1.0000
  N   N9        1.0  0.19505  0.57440  0.06321  1.0000
  N   N10       1.0  0.80495  0.42560  0.93679  1.0000
  N   N11       1.0  0.26210  0.46385  0.25616  1.0000
  N   N12       1.0  0.73791  0.53615  0.74384  1.0000
  N   N13       1.0  0.90892  0.80747  0.48376  1.0000
  N   N14       1.0  0.09108  0.19253  0.51624  1.0000
  N   N15       1.0  0.69158  0.05498  0.56190  1.0000
  N   N16       1.0  0.30843  0.94502  0.43810  1.0000
