data_image0
_chemical_formula_structural       Re4Ag4H16C16N8O16
_chemical_formula_sum              "Re4 Ag4 H16 C16 N8 O16"
_cell_length_a       7.10392
_cell_length_b       7.52758
_cell_length_c       15.6155
_cell_angle_alpha    90.0002
_cell_angle_beta     93.4843
_cell_angle_gamma    89.9999

_space_group_name_H-M_alt    "P 1"
_space_group_IT_number       1

loop_
  _space_group_symop_operation_xyz
  'x, y, z'

loop_
  _atom_site_type_symbol
  _atom_site_label
  _atom_site_symmetry_multiplicity
  _atom_site_fract_x
  _atom_site_fract_y
  _atom_site_fract_z
  _atom_site_occupancy
  Re  Re1       1.0  0.48127  0.84470  0.62324  1.0000
  Re  Re2       1.0  0.51873  0.34470  0.87677  1.0000
  Re  Re3       1.0  0.51874  0.15531  0.37675  1.0000
  Re  Re4       1.0  0.48127  0.65530  0.12323  1.0000
  Ag  Ag1       1.0  0.47777  0.63911  0.36576  1.0000
  Ag  Ag2       1.0  0.52224  0.13911  0.13423  1.0000
  Ag  Ag3       1.0  0.52223  0.36089  0.63424  1.0000
  Ag  Ag4       1.0  0.47776  0.86090  0.86577  1.0000
  H   H1        1.0  0.78448  0.45494  0.25916  1.0000
  H   H2        1.0  0.21553  0.95493  0.24084  1.0000
  H   H3        1.0  0.21552  0.54507  0.74084  1.0000
  H   H4        1.0  0.78447  0.04507  0.75917  1.0000
  H   H5        1.0  0.14027  0.45193  0.25940  1.0000
  H   H6        1.0  0.85975  0.95193  0.24059  1.0000
  H   H7        1.0  0.85973  0.54807  0.74060  1.0000
  H   H8        1.0  0.14025  0.04807  0.75941  1.0000
  H   H9        1.0  0.17178  0.75871  0.48180  1.0000
  H   H10       1.0  0.82822  0.25873  0.01821  1.0000
  H   H11       1.0  0.82821  0.24127  0.51821  1.0000
  H   H12       1.0  0.17178  0.74126  0.98179  1.0000
  H   H13       1.0  0.81683  0.75589  0.48318  1.0000
  H   H14       1.0  0.18317  0.25590  0.01682  1.0000
  H   H15       1.0  0.18317  0.24410  0.51682  1.0000
  H   H16       1.0  0.81682  0.74410  0.98318  1.0000
  C   C1        1.0  0.87142  0.52153  0.30937  1.0000
  C   C2        1.0  0.12859  0.02153  0.19063  1.0000
  C   C3        1.0  0.12858  0.47848  0.69063  1.0000
  C   C4        1.0  0.87142  0.97848  0.80938  1.0000
  C   C5        1.0  0.06742  0.52015  0.30925  1.0000
  C   C6        1.0  0.93259  0.02015  0.19075  1.0000
  C   C7        1.0  0.93258  0.47985  0.69075  1.0000
  C   C8        1.0  0.06740  0.97985  0.80926  1.0000
  C   C9        1.0  0.08555  0.68966  0.43232  1.0000
  C   C10       1.0  0.91446  0.18967  0.06769  1.0000
  C   C11       1.0  0.91445  0.31033  0.56769  1.0000
  C   C12       1.0  0.08554  0.81033  0.93232  1.0000
  C   C13       1.0  0.88989  0.68959  0.43288  1.0000
  C   C14       1.0  0.11011  0.18960  0.06712  1.0000
  C   C15       1.0  0.11010  0.31040  0.56712  1.0000
  C   C16       1.0  0.88989  0.81040  0.93289  1.0000
  N   N1        1.0  0.78259  0.60562  0.37146  1.0000
  N   N2        1.0  0.21742  0.10562  0.12853  1.0000
  N   N3        1.0  0.21741  0.39439  0.62854  1.0000
  N   N4        1.0  0.78258  0.89439  0.87147  1.0000
  N   N5        1.0  0.17452  0.60436  0.37069  1.0000
  N   N6        1.0  0.82549  0.10437  0.12932  1.0000
  N   N7        1.0  0.82548  0.39563  0.62932  1.0000
  N   N8        1.0  0.17451  0.89563  0.87069  1.0000
  O   O1        1.0  0.24299  0.90713  0.62156  1.0000
  O   O2        1.0  0.75702  0.40713  0.87844  1.0000
  O   O3        1.0  0.75702  0.09290  0.37842  1.0000
  O   O4        1.0  0.24298  0.59288  0.12156  1.0000
  O   O5        1.0  0.62789  0.03275  0.62314  1.0000
  O   O6        1.0  0.37210  0.53275  0.87687  1.0000
  O   O7        1.0  0.37212  0.96725  0.37686  1.0000
  O   O8        1.0  0.62790  0.46725  0.12313  1.0000
  O   O9        1.0  0.51836  0.71604  0.53202  1.0000
  O   O10       1.0  0.48165  0.21605  0.96800  1.0000
  O   O11       1.0  0.48166  0.28394  0.46798  1.0000
  O   O12       1.0  0.51835  0.78396  0.03200  1.0000
  O   O13       1.0  0.54073  0.71611  0.71541  1.0000
  O   O14       1.0  0.45928  0.21610  0.78460  1.0000
  O   O15       1.0  0.45926  0.28392  0.28459  1.0000
  O   O16       1.0  0.54074  0.78389  0.21540  1.0000
