data_image0
_chemical_formula_structural       Ag6Mo4H24C24N12O8F14
_chemical_formula_sum              "Ag6 Mo4 H24 C24 N12 O8 F14"
_cell_length_a       7.09185
_cell_length_b       7.78151
_cell_length_c       19.0224
_cell_angle_alpha    101.045
_cell_angle_beta     89.9999
_cell_angle_gamma    90.0003

_space_group_name_H-M_alt    "P 1"
_space_group_IT_number       1

loop_
  _space_group_symop_operation_xyz
  'x, y, z'

loop_
  _atom_site_type_symbol
  _atom_site_label
  _atom_site_symmetry_multiplicity
  _atom_site_fract_x
  _atom_site_fract_y
  _atom_site_fract_z
  _atom_site_occupancy
  Ag  Ag1       1.0  0.55974  0.31450  0.92810  1.0000
  Ag  Ag2       1.0  0.55975  0.18550  0.57189  1.0000
  Ag  Ag3       1.0  0.44025  0.68549  0.07189  1.0000
  Ag  Ag4       1.0  0.44025  0.81449  0.42810  1.0000
  Ag  Ag5       1.0  0.49154  0.25000  0.75000  1.0000
  Ag  Ag6       1.0  0.50845  0.75000  0.25000  1.0000
  Mo  Mo1       1.0  0.51444  0.81191  0.86171  1.0000
  Mo  Mo2       1.0  0.51443  0.68810  0.63830  1.0000
  Mo  Mo3       1.0  0.48557  0.18810  0.13830  1.0000
  Mo  Mo4       1.0  0.48557  0.31190  0.36171  1.0000
  H   H1        1.0  0.24402  0.09377  0.97190  1.0000
  H   H2        1.0  0.24403  0.40624  0.52810  1.0000
  H   H3        1.0  0.75598  0.90623  0.02810  1.0000
  H   H4        1.0  0.75598  0.59376  0.47190  1.0000
  H   H5        1.0  0.88574  0.08232  0.96618  1.0000
  H   H6        1.0  0.88574  0.41770  0.53382  1.0000
  H   H7        1.0  0.11426  0.91769  0.03382  1.0000
  H   H8        1.0  0.11426  0.58231  0.46618  1.0000
  H   H9        1.0  0.87814  0.55275  0.89306  1.0000
  H   H10       1.0  0.87816  0.94726  0.60693  1.0000
  H   H11       1.0  0.12185  0.44725  0.10693  1.0000
  H   H12       1.0  0.12185  0.05274  0.39307  1.0000
  H   H13       1.0  0.23281  0.56456  0.89880  1.0000
  H   H14       1.0  0.23283  0.93545  0.60119  1.0000
  H   H15       1.0  0.76718  0.43544  0.10119  1.0000
  H   H16       1.0  0.76718  0.06455  0.39880  1.0000
  H   H17       1.0  0.81352  0.50427  0.72978  1.0000
  H   H18       1.0  0.81351  0.99573  0.77022  1.0000
  H   H19       1.0  0.18647  0.49572  0.27022  1.0000
  H   H20       1.0  0.18647  0.00426  0.22978  1.0000
  H   H21       1.0  0.16974  0.50078  0.72595  1.0000
  H   H22       1.0  0.16974  0.99922  0.77404  1.0000
  H   H23       1.0  0.83025  0.49922  0.27405  1.0000
  H   H24       1.0  0.83025  0.00077  0.22595  1.0000
  C   C1        1.0  0.16065  0.19650  0.95518  1.0000
  C   C2        1.0  0.16066  0.30351  0.54482  1.0000
  C   C3        1.0  0.83934  0.80350  0.04482  1.0000
  C   C4        1.0  0.83935  0.69648  0.45518  1.0000
  C   C5        1.0  0.96479  0.19059  0.95229  1.0000
  C   C6        1.0  0.96480  0.30941  0.54772  1.0000
  C   C7        1.0  0.03521  0.80941  0.04772  1.0000
  C   C8        1.0  0.03521  0.69059  0.45228  1.0000
  C   C9        1.0  0.96005  0.45106  0.91133  1.0000
  C   C10       1.0  0.96007  0.04894  0.58867  1.0000
  C   C11       1.0  0.03995  0.54894  0.08867  1.0000
  C   C12       1.0  0.03994  0.95106  0.41133  1.0000
  C   C13       1.0  0.15592  0.45733  0.91469  1.0000
  C   C14       1.0  0.15593  0.04267  0.58530  1.0000
  C   C15       1.0  0.84408  0.54267  0.08531  1.0000
  C   C16       1.0  0.84408  0.95732  0.41470  1.0000
  C   C17       1.0  0.89358  0.39001  0.73791  1.0000
  C   C18       1.0  0.89358  0.11000  0.76209  1.0000
  C   C19       1.0  0.10642  0.60999  0.26209  1.0000
  C   C20       1.0  0.10642  0.89001  0.23791  1.0000
  C   C21       1.0  0.08999  0.38877  0.73655  1.0000
  C   C22       1.0  0.08999  0.11123  0.76345  1.0000
  C   C23       1.0  0.91000  0.61123  0.26345  1.0000
  C   C24       1.0  0.91000  0.88877  0.23655  1.0000
  N   N1        1.0  0.25577  0.33095  0.93690  1.0000
  N   N2        1.0  0.25578  0.16904  0.56310  1.0000
  N   N3        1.0  0.74423  0.66905  0.06310  1.0000
  N   N4        1.0  0.74423  0.83095  0.43690  1.0000
  N   N5        1.0  0.86456  0.31816  0.93079  1.0000
  N   N6        1.0  0.86457  0.18184  0.56921  1.0000
  N   N7        1.0  0.13543  0.68184  0.06921  1.0000
  N   N8        1.0  0.13544  0.81815  0.43079  1.0000
  N   N9        1.0  0.79626  0.25000  0.75000  1.0000
  N   N10       1.0  0.20372  0.75000  0.25000  1.0000
  N   N11       1.0  0.18776  0.25000  0.75000  1.0000
  N   N12       1.0  0.81224  0.75001  0.25000  1.0000
  O   O1        1.0  0.56127  0.17134  0.05113  1.0000
  O   O2        1.0  0.56127  0.32867  0.44887  1.0000
  O   O3        1.0  0.43874  0.82869  0.94887  1.0000
  O   O4        1.0  0.43875  0.67134  0.55113  1.0000
  O   O5        1.0  0.48124  0.02324  0.84659  1.0000
  O   O6        1.0  0.48124  0.47676  0.65341  1.0000
  O   O7        1.0  0.51876  0.97675  0.15341  1.0000
  O   O8        1.0  0.51878  0.52324  0.34659  1.0000
  F   F1        1.0  0.61328  0.75000  0.75000  1.0000
  F   F2        1.0  0.38672  0.25000  0.25000  1.0000
  F   F3        1.0  0.78197  0.84085  0.88167  1.0000
  F   F4        1.0  0.78198  0.65915  0.61834  1.0000
  F   F5        1.0  0.21803  0.15916  0.11833  1.0000
  F   F6        1.0  0.21804  0.34085  0.38167  1.0000
  F   F7        1.0  0.58469  0.55485  0.84944  1.0000
  F   F8        1.0  0.58472  0.94515  0.65056  1.0000
  F   F9        1.0  0.41530  0.44516  0.15057  1.0000
  F   F10       1.0  0.41529  0.05485  0.34944  1.0000
  F   F11       1.0  0.28021  0.71927  0.81966  1.0000
  F   F12       1.0  0.28022  0.78073  0.68035  1.0000
  F   F13       1.0  0.71980  0.28072  0.18035  1.0000
  F   F14       1.0  0.71979  0.21926  0.31965  1.0000
