data_image0
_chemical_formula_structural       Cd2B4H24C8N32O4
_chemical_formula_sum              "Cd2 B4 H24 C8 N32 O4"
_cell_length_a       10.1463
_cell_length_b       8.93445
_cell_length_c       10.2704
_cell_angle_alpha    115.593
_cell_angle_beta     89.9989
_cell_angle_gamma    89.9951

_space_group_name_H-M_alt    "P 1"
_space_group_IT_number       1

loop_
  _space_group_symop_operation_xyz
  'x, y, z'

loop_
  _atom_site_type_symbol
  _atom_site_label
  _atom_site_symmetry_multiplicity
  _atom_site_fract_x
  _atom_site_fract_y
  _atom_site_fract_z
  _atom_site_occupancy
  Cd  Cd1       1.0  0.85281  0.74854  0.99725  1.0000
  Cd  Cd2       1.0  0.35276  0.25147  0.00295  1.0000
  B   B1        1.0  0.10453  0.82400  0.50014  1.0000
  B   B2        1.0  0.10246  0.31134  0.49893  1.0000
  B   B3        1.0  0.60268  0.68871  0.50117  1.0000
  B   B4        1.0  0.60430  0.17615  0.50015  1.0000
  H   H1        1.0  0.00731  0.88470  0.47496  1.0000
  H   H2        1.0  0.00419  0.39513  0.51880  1.0000
  H   H3        1.0  0.50446  0.60487  0.48142  1.0000
  H   H4        1.0  0.50703  0.11561  0.52542  1.0000
  H   H5        1.0  0.20245  0.90851  0.52521  1.0000
  H   H6        1.0  0.20041  0.37581  0.47888  1.0000
  H   H7        1.0  0.70071  0.62435  0.52119  1.0000
  H   H8        1.0  0.70217  0.09155  0.47512  1.0000
  H   H9        1.0  0.86557  0.83542  0.67316  1.0000
  H   H10       1.0  0.87299  0.16006  0.30944  1.0000
  H   H11       1.0  0.37331  0.83943  0.69096  1.0000
  H   H12       1.0  0.36540  0.16481  0.32706  1.0000
  H   H13       1.0  0.34255  0.65908  0.32689  1.0000
  H   H14       1.0  0.33187  0.35326  0.68963  1.0000
  H   H15       1.0  0.83200  0.64721  0.31046  1.0000
  H   H16       1.0  0.84232  0.34072  0.67347  1.0000
  H   H17       1.0  0.02184  0.48686  0.02875  1.0000
  H   H18       1.0  0.52179  0.51315  0.97140  1.0000
  H   H19       1.0  0.09685  0.64058  0.03030  1.0000
  H   H20       1.0  0.59658  0.35831  0.96791  1.0000
  H   H21       1.0  0.68345  0.04079  0.02805  1.0000
  H   H22       1.0  0.18315  0.95950  0.97214  1.0000
  H   H23       1.0  0.61023  0.89372  0.04151  1.0000
  H   H24       1.0  0.11037  0.10604  0.95713  1.0000
  C   C1        1.0  0.95983  0.80161  0.70310  1.0000
  C   C2        1.0  0.96461  0.09027  0.28817  1.0000
  C   C3        1.0  0.46478  0.90949  0.71209  1.0000
  C   C4        1.0  0.45971  0.19843  0.29707  1.0000
  C   C5        1.0  0.24754  0.59751  0.29670  1.0000
  C   C6        1.0  0.24084  0.30309  0.71054  1.0000
  C   C7        1.0  0.74086  0.69717  0.28954  1.0000
  C   C8        1.0  0.74740  0.40255  0.70352  1.0000
  N   N1        1.0  0.07363  0.78877  0.63265  1.0000
  N   N2        1.0  0.07595  0.14327  0.36462  1.0000
  N   N3        1.0  0.57607  0.85680  0.63548  1.0000
  N   N4        1.0  0.57348  0.21120  0.36754  1.0000
  N   N5        1.0  0.16922  0.75185  0.70571  1.0000
  N   N6        1.0  0.16825  0.02323  0.30330  1.0000
  N   N7        1.0  0.66815  0.97714  0.69660  1.0000
  N   N8        1.0  0.66915  0.24780  0.29438  1.0000
  N   N9        1.0  0.11509  0.74255  0.81679  1.0000
  N   N10       1.0  0.11348  0.90153  0.19447  1.0000
  N   N11       1.0  0.61328  0.09872  0.80543  1.0000
  N   N12       1.0  0.61511  0.25698  0.18321  1.0000
  N   N13       1.0  0.98328  0.77334  0.81801  1.0000
  N   N14       1.0  0.98582  0.94033  0.18189  1.0000
  N   N15       1.0  0.48577  0.05956  0.81825  1.0000
  N   N16       1.0  0.48326  0.22643  0.18204  1.0000
  N   N17       1.0  0.13418  0.65675  0.36744  1.0000
  N   N18       1.0  0.12964  0.27737  0.63345  1.0000
  N   N19       1.0  0.62968  0.72265  0.36663  1.0000
  N   N20       1.0  0.63404  0.34347  0.63274  1.0000
  N   N21       1.0  0.03742  0.54949  0.29414  1.0000
  N   N22       1.0  0.03848  0.21620  0.69427  1.0000
  N   N23       1.0  0.53835  0.78351  0.30572  1.0000
  N   N24       1.0  0.53738  0.45107  0.70583  1.0000
  N   N25       1.0  0.09037  0.42918  0.18269  1.0000
  N   N26       1.0  0.09392  0.20406  0.80344  1.0000
  N   N27       1.0  0.59364  0.79568  0.19650  1.0000
  N   N28       1.0  0.59039  0.57141  0.81720  1.0000
  N   N29       1.0  0.22262  0.45599  0.18141  1.0000
  N   N30       1.0  0.22073  0.25836  0.81676  1.0000
  N   N31       1.0  0.72055  0.74170  0.18322  1.0000
  N   N32       1.0  0.72257  0.54428  0.81863  1.0000
  O   O1        1.0  0.02483  0.56275  0.98242  1.0000
  O   O2        1.0  0.52509  0.43659  0.01700  1.0000
  O   O3        1.0  0.67881  0.91925  0.98645  1.0000
  O   O4        1.0  0.17838  0.08098  0.01312  1.0000
