data_image0
_chemical_formula_structural       Zn2B4H24C8N32O4
_chemical_formula_sum              "Zn2 B4 H24 C8 N32 O4"
_cell_length_a       9.8215
_cell_length_b       8.82521
_cell_length_c       10.0481
_cell_angle_alpha    116.655
_cell_angle_beta     89.9858
_cell_angle_gamma    89.977

_space_group_name_H-M_alt    "P 1"
_space_group_IT_number       1

loop_
  _space_group_symop_operation_xyz
  'x, y, z'

loop_
  _atom_site_type_symbol
  _atom_site_label
  _atom_site_symmetry_multiplicity
  _atom_site_fract_x
  _atom_site_fract_y
  _atom_site_fract_z
  _atom_site_occupancy
  Zn  Zn1       1.0  0.08325  0.75022  0.99870  1.0000
  Zn  Zn2       1.0  0.58306  0.24927  0.00009  1.0000
  B   B1        1.0  0.33164  0.69413  0.49662  1.0000
  B   B2        1.0  0.33487  0.18812  0.49838  1.0000
  B   B3        1.0  0.83653  0.81089  0.49990  1.0000
  B   B4        1.0  0.83054  0.30565  0.50276  1.0000
  H   H1        1.0  0.23002  0.62982  0.51677  1.0000
  H   H2        1.0  0.23469  0.10050  0.47358  1.0000
  H   H3        1.0  0.73657  0.89896  0.52470  1.0000
  H   H4        1.0  0.72860  0.36948  0.48259  1.0000
  H   H5        1.0  0.43218  0.60723  0.47584  1.0000
  H   H6        1.0  0.43635  0.12754  0.52276  1.0000
  H   H7        1.0  0.93810  0.87071  0.47488  1.0000
  H   H8        1.0  0.93082  0.39280  0.52321  1.0000
  H   H9        1.0  0.09757  0.64762  0.29866  1.0000
  H   H10       1.0  0.09108  0.34736  0.68486  1.0000
  H   H11       1.0  0.59257  0.65430  0.31340  1.0000
  H   H12       1.0  0.59652  0.34952  0.70044  1.0000
  H   H13       1.0  0.56636  0.83925  0.69671  1.0000
  H   H14       1.0  0.57670  0.16604  0.31179  1.0000
  H   H15       1.0  0.07841  0.83254  0.68644  1.0000
  H   H16       1.0  0.06510  0.16210  0.30189  1.0000
  H   H17       1.0  0.94495  0.47493  0.02332  1.0000
  H   H18       1.0  0.44485  0.52385  0.97394  1.0000
  H   H19       1.0  0.85716  0.63398  0.04511  1.0000
  H   H20       1.0  0.35630  0.36903  0.95998  1.0000
  H   H21       1.0  0.31371  0.89715  0.00997  1.0000
  H   H22       1.0  0.81312  0.10918  0.00694  1.0000
  H   H23       1.0  0.22323  0.05202  0.02979  1.0000
  H   H24       1.0  0.72413  0.94744  0.96853  1.0000
  C   C1        1.0  0.19078  0.70012  0.27810  1.0000
  C   C2        1.0  0.18672  0.41657  0.71219  1.0000
  C   C3        1.0  0.68753  0.58352  0.28667  1.0000
  C   C4        1.0  0.69041  0.29842  0.72128  1.0000
  C   C5        1.0  0.47468  0.91582  0.71726  1.0000
  C   C6        1.0  0.47966  0.20440  0.28486  1.0000
  C   C7        1.0  0.98110  0.79551  0.71400  1.0000
  C   C8        1.0  0.97403  0.08471  0.28181  1.0000
  N   N1        1.0  0.30461  0.72746  0.35900  1.0000
  N   N2        1.0  0.30300  0.35994  0.63586  1.0000
  N   N3        1.0  0.80394  0.63871  0.36300  1.0000
  N   N4        1.0  0.80416  0.27242  0.64044  1.0000
  N   N5        1.0  0.39958  0.78959  0.29848  1.0000
  N   N6        1.0  0.40058  0.47662  0.70668  1.0000
  N   N7        1.0  0.90051  0.51993  0.29320  1.0000
  N   N8        1.0  0.90011  0.21195  0.70137  1.0000
  N   N9        1.0  0.34403  0.80083  0.18593  1.0000
  N   N10       1.0  0.34517  0.59996  0.82193  1.0000
  N   N11       1.0  0.84425  0.39670  0.17859  1.0000
  N   N12       1.0  0.84532  0.20051  0.81419  1.0000
  N   N13       1.0  0.21293  0.74480  0.16981  1.0000
  N   N14       1.0  0.21056  0.56572  0.82845  1.0000
  N   N15       1.0  0.71030  0.43316  0.17139  1.0000
  N   N16       1.0  0.71359  0.25461  0.82994  1.0000
  N   N17       1.0  0.36077  0.86636  0.63563  1.0000
  N   N18       1.0  0.36428  0.22201  0.36181  1.0000
  N   N19       1.0  0.86580  0.77812  0.63708  1.0000
  N   N20       1.0  0.86020  0.13334  0.36391  1.0000
  N   N21       1.0  0.26885  0.99395  0.69635  1.0000
  N   N22       1.0  0.26452  0.26412  0.29196  1.0000
  N   N23       1.0  0.76562  0.73819  0.70792  1.0000
  N   N24       1.0  0.76918  0.00478  0.30403  1.0000
  N   N25       1.0  0.32634  0.11672  0.80991  1.0000
  N   N26       1.0  0.31764  0.27208  0.17664  1.0000
  N   N27       1.0  0.81835  0.73127  0.82381  1.0000
  N   N28       1.0  0.82711  0.88228  0.19053  1.0000
  N   N29       1.0  0.45546  0.07119  0.82655  1.0000
  N   N30       1.0  0.45315  0.23503  0.16921  1.0000
  N   N31       1.0  0.95413  0.76676  0.83059  1.0000
  N   N32       1.0  0.95558  0.92893  0.17299  1.0000
  O   O1        1.0  0.93507  0.56305  0.99035  1.0000
  O   O2        1.0  0.43597  0.43866  0.01057  1.0000
  O   O3        1.0  0.22685  0.92779  0.98042  1.0000
  O   O4        1.0  0.72340  0.07167  0.02281  1.0000
