data_image0
_chemical_formula_structural       Cu2H24C16N4O8
_chemical_formula_sum              "Cu2 H24 C16 N4 O8"
_cell_length_a       6.93409
_cell_length_b       8.85878
_cell_length_c       8.85877
_cell_angle_alpha    82.836
_cell_angle_beta     83.3173
_cell_angle_gamma    83.3169

_space_group_name_H-M_alt    "P 1"
_space_group_IT_number       1

loop_
  _space_group_symop_operation_xyz
  'x, y, z'

loop_
  _atom_site_type_symbol
  _atom_site_label
  _atom_site_symmetry_multiplicity
  _atom_site_fract_x
  _atom_site_fract_y
  _atom_site_fract_z
  _atom_site_occupancy
  Cu  Cu1       1.0  1.00000  0.50000  0.00000  1.0000
  Cu  Cu2       1.0  0.50000  0.00000  0.50000  1.0000
  H   H1        1.0  0.31073  0.59514  0.86744  1.0000
  H   H2        1.0  0.81073  0.86744  0.59513  1.0000
  H   H3        1.0  0.68927  0.40487  0.13255  1.0000
  H   H4        1.0  0.18927  0.13255  0.40486  1.0000
  H   H5        1.0  0.34818  0.54035  0.19785  1.0000
  H   H6        1.0  0.84818  0.19785  0.54035  1.0000
  H   H7        1.0  0.65182  0.45965  0.80214  1.0000
  H   H8        1.0  0.15182  0.80214  0.45965  1.0000
  H   H9        1.0  0.28797  0.71851  0.09019  1.0000
  H   H10       1.0  0.78797  0.09019  0.71850  1.0000
  H   H11       1.0  0.71203  0.28150  0.90981  1.0000
  H   H12       1.0  0.21203  0.90980  0.28150  1.0000
  H   H13       1.0  0.86385  0.64733  0.46644  1.0000
  H   H14       1.0  0.36386  0.46644  0.64733  1.0000
  H   H15       1.0  0.13615  0.35267  0.53356  1.0000
  H   H16       1.0  0.63616  0.53356  0.35267  1.0000
  H   H17       1.0  0.35661  0.32276  0.86548  1.0000
  H   H18       1.0  0.85661  0.86548  0.32276  1.0000
  H   H19       1.0  0.64339  0.67725  0.13452  1.0000
  H   H20       1.0  0.14339  0.13452  0.67724  1.0000
  H   H21       1.0  0.38706  0.30322  0.06425  1.0000
  H   H22       1.0  0.88706  0.06425  0.30322  1.0000
  H   H23       1.0  0.61294  0.69678  0.93575  1.0000
  H   H24       1.0  0.11294  0.93575  0.69678  1.0000
  C   C1        1.0  0.37173  0.60584  0.08502  1.0000
  C   C2        1.0  0.87173  0.08502  0.60583  1.0000
  C   C3        1.0  0.62827  0.39417  0.91498  1.0000
  C   C4        1.0  0.12827  0.91497  0.39416  1.0000
  C   C5        1.0  0.95134  0.55912  0.53304  1.0000
  C   C6        1.0  0.45135  0.53304  0.55912  1.0000
  C   C7        1.0  0.04866  0.44088  0.46696  1.0000
  C   C8        1.0  0.54867  0.46696  0.44088  1.0000
  C   C9        1.0  0.95500  0.57988  0.69652  1.0000
  C   C10       1.0  0.45499  0.69652  0.57990  1.0000
  C   C11       1.0  0.04501  0.42011  0.30348  1.0000
  C   C12       1.0  0.54502  0.30347  0.42010  1.0000
  C   C13       1.0  0.41090  0.37613  0.95554  1.0000
  C   C14       1.0  0.91090  0.95553  0.37612  1.0000
  C   C15       1.0  0.58910  0.62388  0.04446  1.0000
  C   C16       1.0  0.08910  0.04446  0.62388  1.0000
  N   N1        1.0  0.29454  0.52616  0.97140  1.0000
  N   N2        1.0  0.79454  0.97140  0.52615  1.0000
  N   N3        1.0  0.70545  0.47385  0.02860  1.0000
  N   N4        1.0  0.20545  0.02860  0.47384  1.0000
  O   O1        1.0  0.02893  0.46397  0.78325  1.0000
  O   O2        1.0  0.52894  0.78325  0.46396  1.0000
  O   O3        1.0  0.97107  0.53603  0.21676  1.0000
  O   O4        1.0  0.47106  0.21675  0.53603  1.0000
  O   O5        1.0  0.88580  0.70614  0.74218  1.0000
  O   O6        1.0  0.38580  0.74219  0.70611  1.0000
  O   O7        1.0  0.11420  0.29387  0.25782  1.0000
  O   O8        1.0  0.61420  0.25782  0.29388  1.0000
