data_image0
_chemical_formula_structural       Li4H8C12N12O8
_chemical_formula_sum              "Li4 H8 C12 N12 O8"
_cell_length_a       3.42603
_cell_length_b       9.15089
_cell_length_c       14.1279
_cell_angle_alpha    89.9996
_cell_angle_beta     93.3389
_cell_angle_gamma    89.9997

_space_group_name_H-M_alt    "P 1"
_space_group_IT_number       1

loop_
  _space_group_symop_operation_xyz
  'x, y, z'

loop_
  _atom_site_type_symbol
  _atom_site_label
  _atom_site_symmetry_multiplicity
  _atom_site_fract_x
  _atom_site_fract_y
  _atom_site_fract_z
  _atom_site_occupancy
  Li  Li1       1.0  0.89837  0.85866  0.28990  1.0000
  Li  Li2       1.0  0.60164  0.35866  0.21009  1.0000
  Li  Li3       1.0  0.10163  0.14134  0.71010  1.0000
  Li  Li4       1.0  0.39836  0.64134  0.78990  1.0000
  H   H1        1.0  0.38194  0.88944  0.41077  1.0000
  H   H2        1.0  0.11805  0.38943  0.08923  1.0000
  H   H3        1.0  0.61804  0.11057  0.58923  1.0000
  H   H4        1.0  0.88194  0.61056  0.91077  1.0000
  H   H5        1.0  0.45813  0.03968  0.35776  1.0000
  H   H6        1.0  0.04187  0.53968  0.14224  1.0000
  H   H7        1.0  0.54185  0.96032  0.64224  1.0000
  H   H8        1.0  0.95814  0.46032  0.85776  1.0000
  C   C1        1.0  0.84209  0.42915  0.41870  1.0000
  C   C2        1.0  0.65794  0.92914  0.08129  1.0000
  C   C3        1.0  0.15793  0.57086  0.58129  1.0000
  C   C4        1.0  0.34207  0.07085  0.91871  1.0000
  C   C5        1.0  0.87437  0.35524  0.50607  1.0000
  C   C6        1.0  0.62564  0.85522  0.99394  1.0000
  C   C7        1.0  0.12566  0.64477  0.49393  1.0000
  C   C8        1.0  0.37436  0.14476  0.00607  1.0000
  C   C9        1.0  0.95600  0.58181  0.40526  1.0000
  C   C10       1.0  0.54401  0.08182  0.09475  1.0000
  C   C11       1.0  0.04401  0.41819  0.59475  1.0000
  C   C12       1.0  0.45599  0.91819  0.90526  1.0000
  N   N1        1.0  0.67953  0.33575  0.35368  1.0000
  N   N2        1.0  0.82048  0.83574  0.14632  1.0000
  N   N3        1.0  0.32045  0.66426  0.64632  1.0000
  N   N4        1.0  0.17953  0.16425  0.85368  1.0000
  N   N5        1.0  0.61307  0.21030  0.39923  1.0000
  N   N6        1.0  0.88694  0.71028  0.10077  1.0000
  N   N7        1.0  0.38692  0.78972  0.60077  1.0000
  N   N8        1.0  0.11308  0.28971  0.89923  1.0000
  N   N9        1.0  0.72718  0.21955  0.49124  1.0000
  N   N10       1.0  0.77283  0.71955  0.00876  1.0000
  N   N11       1.0  0.27283  0.78046  0.50876  1.0000
  N   N12       1.0  0.22719  0.28045  0.99124  1.0000
  O   O1        1.0  0.90384  0.64911  0.32918  1.0000
  O   O2        1.0  0.59617  0.14909  0.17081  1.0000
  O   O3        1.0  0.09611  0.35092  0.67081  1.0000
  O   O4        1.0  0.40385  0.85090  0.82918  1.0000
  O   O5        1.0  0.41051  0.93234  0.34603  1.0000
  O   O6        1.0  0.08948  0.43233  0.15397  1.0000
  O   O7        1.0  0.58946  0.06767  0.65397  1.0000
  O   O8        1.0  0.91051  0.56766  0.84603  1.0000
