data_image0
_chemical_formula_structural       K4H8C12N12O8
_chemical_formula_sum              "K4 H8 C12 N12 O8"
_cell_length_a       6.39864
_cell_length_b       9.59732
_cell_length_c       10.3396
_cell_angle_alpha    110.792
_cell_angle_beta     98.4121
_cell_angle_gamma    110.551

_space_group_name_H-M_alt    "P 1"
_space_group_IT_number       1

loop_
  _space_group_symop_operation_xyz
  'x, y, z'

loop_
  _atom_site_type_symbol
  _atom_site_label
  _atom_site_symmetry_multiplicity
  _atom_site_fract_x
  _atom_site_fract_y
  _atom_site_fract_z
  _atom_site_occupancy
  K   K1        1.0  0.28577  0.54937  0.84208  1.0000
  K   K2        1.0  0.94328  0.70744  0.15841  1.0000
  K   K3        1.0  0.02993  0.62452  0.50401  1.0000
  K   K4        1.0  0.02555  0.12063  0.49615  1.0000
  H   H1        1.0  0.38430  0.92287  0.38512  1.0000
  H   H2        1.0  0.49940  0.53800  0.61489  1.0000
  H   H3        1.0  0.35719  0.97331  0.54428  1.0000
  H   H4        1.0  0.31315  0.42896  0.45580  1.0000
  H   H5        1.0  0.71144  0.28487  0.47033  1.0000
  H   H6        1.0  0.74114  0.81451  0.52951  1.0000
  H   H7        1.0  0.70547  0.34043  0.63326  1.0000
  H   H8        1.0  0.57217  0.70689  0.36666  1.0000
  C   C1        1.0  0.39617  0.95350  0.88029  1.0000
  C   C2        1.0  0.01564  0.07283  0.11969  1.0000
  C   C3        1.0  0.47534  0.10368  0.85770  1.0000
  C   C4        1.0  0.11714  0.24559  0.14227  1.0000
  C   C5        1.0  0.58991  0.26510  0.97153  1.0000
  C   C6        1.0  0.11787  0.29331  0.02845  1.0000
  C   C7        1.0  0.65001  0.30399  0.12671  1.0000
  C   C8        1.0  0.02301  0.17739  0.87331  1.0000
  C   C9        1.0  0.56946  0.15408  0.14934  1.0000
  C   C10       1.0  0.92013  0.00483  0.85065  1.0000
  C   C11       1.0  0.45217  0.99264  0.03556  1.0000
  C   C12       1.0  0.91647  0.95693  0.96439  1.0000
  N   N1        1.0  0.45954  0.11813  0.73166  1.0000
  N   N2        1.0  0.22769  0.38592  0.26830  1.0000
  N   N3        1.0  0.55890  0.28079  0.76697  1.0000
  N   N4        1.0  0.29187  0.51328  0.23294  1.0000
  N   N5        1.0  0.63948  0.37296  0.91204  1.0000
  N   N6        1.0  0.22721  0.46056  0.08789  1.0000
  N   N7        1.0  0.40449  0.88504  0.09541  1.0000
  N   N8        1.0  0.80895  0.78956  0.90448  1.0000
  N   N9        1.0  0.49011  0.97779  0.24044  1.0000
  N   N10       1.0  0.74962  0.73756  0.75945  1.0000
  N   N11       1.0  0.58985  0.14032  0.27568  1.0000
  N   N12       1.0  0.81423  0.86496  0.72429  1.0000
  O   O1        1.0  0.75914  0.44724  0.22575  1.0000
  O   O2        1.0  0.03283  0.22189  0.77433  1.0000
  O   O3        1.0  0.29530  0.80981  0.78126  1.0000
  O   O4        1.0  0.01380  0.02812  0.21875  1.0000
  O   O5        1.0  0.27423  0.89379  0.43961  1.0000
  O   O6        1.0  0.33490  0.45446  0.56058  1.0000
  O   O7        1.0  0.80967  0.36006  0.57334  1.0000
  O   O8        1.0  0.73625  0.78646  0.42641  1.0000
