data_image0
_chemical_formula_structural       Na4H16C12N12O12
_chemical_formula_sum              "Na4 H16 C12 N12 O12"
_cell_length_a       6.88916
_cell_length_b       9.35467
_cell_length_c       9.35445
_cell_angle_alpha    112.639
_cell_angle_beta     96.058
_cell_angle_gamma    96.0576

_space_group_name_H-M_alt    "P 1"
_space_group_IT_number       1

loop_
  _space_group_symop_operation_xyz
  'x, y, z'

loop_
  _atom_site_type_symbol
  _atom_site_label
  _atom_site_symmetry_multiplicity
  _atom_site_fract_x
  _atom_site_fract_y
  _atom_site_fract_z
  _atom_site_occupancy
  Na  Na1       1.0  0.48458  0.56399  0.18789  1.0000
  Na  Na2       1.0  0.01543  0.81212  0.43603  1.0000
  Na  Na3       1.0  0.51543  0.43602  0.81211  1.0000
  Na  Na4       1.0  0.98457  0.18788  0.56398  1.0000
  H   H1        1.0  0.16510  0.55652  0.93370  1.0000
  H   H2        1.0  0.33490  0.06629  0.44347  1.0000
  H   H3        1.0  0.83491  0.44348  0.06630  1.0000
  H   H4        1.0  0.66510  0.93371  0.55654  1.0000
  H   H5        1.0  0.15042  0.38382  0.92441  1.0000
  H   H6        1.0  0.34960  0.07559  0.61618  1.0000
  H   H7        1.0  0.84960  0.61618  0.07560  1.0000
  H   H8        1.0  0.65041  0.92442  0.38383  1.0000
  H   H9        1.0  0.17129  0.52245  0.34820  1.0000
  H   H10       1.0  0.32873  0.65180  0.47757  1.0000
  H   H11       1.0  0.82872  0.47755  0.65181  1.0000
  H   H12       1.0  0.67128  0.34820  0.52244  1.0000
  H   H13       1.0  0.79970  0.49942  0.37367  1.0000
  H   H14       1.0  0.70030  0.62633  0.50060  1.0000
  H   H15       1.0  0.20030  0.50058  0.62634  1.0000
  H   H16       1.0  0.29970  0.37367  0.49940  1.0000
  C   C1        1.0  0.50755  0.89075  0.08691  1.0000
  C   C2        1.0  0.99245  0.91306  0.10924  1.0000
  C   C3        1.0  0.49237  0.10924  0.91307  1.0000
  C   C4        1.0  0.00755  0.08694  0.89074  1.0000
  C   C5        1.0  0.46997  0.05301  0.15546  1.0000
  C   C6        1.0  0.02998  0.84454  0.94699  1.0000
  C   C7        1.0  0.53003  0.94699  0.84453  1.0000
  C   C8        1.0  0.96998  0.15545  0.05300  1.0000
  C   C9        1.0  0.46669  0.15581  0.07802  1.0000
  C   C10       1.0  0.03336  0.92200  0.84421  1.0000
  C   C11       1.0  0.53333  0.84420  0.92198  1.0000
  C   C12       1.0  0.96662  0.07801  0.15579  1.0000
  N   N1        1.0  0.43114  0.29469  0.18114  1.0000
  N   N2        1.0  0.06889  0.81889  0.70535  1.0000
  N   N3        1.0  0.56884  0.70532  0.81886  1.0000
  N   N4        1.0  0.93112  0.18113  0.29466  1.0000
  N   N5        1.0  0.41236  0.27736  0.31525  1.0000
  N   N6        1.0  0.08767  0.68477  0.72272  1.0000
  N   N7        1.0  0.58768  0.72265  0.68477  1.0000
  N   N8        1.0  0.91233  0.31524  0.27732  1.0000
  N   N9        1.0  0.43432  0.13154  0.30214  1.0000
  N   N10       1.0  0.06565  0.69789  0.86851  1.0000
  N   N11       1.0  0.56564  0.86846  0.69785  1.0000
  N   N12       1.0  0.93434  0.30213  0.13152  1.0000
  O   O1        1.0  0.52103  0.80783  0.16311  1.0000
  O   O2        1.0  0.97898  0.83685  0.19214  1.0000
  O   O3        1.0  0.47900  0.19216  0.83689  1.0000
  O   O4        1.0  0.02102  0.16309  0.80778  1.0000
  O   O5        1.0  0.24120  0.48337  0.96126  1.0000
  O   O6        1.0  0.25880  0.03875  0.51662  1.0000
  O   O7        1.0  0.75881  0.51663  0.03875  1.0000
  O   O8        1.0  0.74121  0.96125  0.48338  1.0000
  O   O9        1.0  0.24999  0.62517  0.37480  1.0000
  O   O10       1.0  0.75002  0.37483  0.62520  1.0000
  O   O11       1.0  0.75001  0.60061  0.39941  1.0000
  O   O12       1.0  0.25000  0.39939  0.60059  1.0000
