data_image0
_chemical_formula_structural       Co4P4H32C28N8O12
_chemical_formula_sum              "Co4 P4 H32 C28 N8 O12"
_cell_length_a       5.28209
_cell_length_b       11.079
_cell_length_c       17.79
_cell_angle_alpha    101.805
_cell_angle_beta     90.0005
_cell_angle_gamma    90.0001

_space_group_name_H-M_alt    "P 1"
_space_group_IT_number       1

loop_
  _space_group_symop_operation_xyz
  'x, y, z'

loop_
  _atom_site_type_symbol
  _atom_site_label
  _atom_site_symmetry_multiplicity
  _atom_site_fract_x
  _atom_site_fract_y
  _atom_site_fract_z
  _atom_site_occupancy
  Co  Co1       1.0  0.79918  0.51240  0.91049  1.0000
  Co  Co2       1.0  0.29918  0.98760  0.58950  1.0000
  Co  Co3       1.0  0.20082  0.48761  0.08950  1.0000
  Co  Co4       1.0  0.70080  0.01240  0.41050  1.0000
  P   P1        1.0  0.28235  0.65525  0.96929  1.0000
  P   P2        1.0  0.78235  0.84476  0.53071  1.0000
  P   P3        1.0  0.71764  0.34476  0.03071  1.0000
  P   P4        1.0  0.21764  0.15525  0.46929  1.0000
  H   H1        1.0  0.23932  0.78105  0.97004  1.0000
  H   H2        1.0  0.73931  0.71896  0.52997  1.0000
  H   H3        1.0  0.76068  0.21896  0.02996  1.0000
  H   H4        1.0  0.26067  0.28105  0.47004  1.0000
  H   H5        1.0  0.01174  0.50171  0.73859  1.0000
  H   H6        1.0  0.51174  0.99829  0.76141  1.0000
  H   H7        1.0  0.98826  0.49829  0.26141  1.0000
  H   H8        1.0  0.48825  0.00172  0.23859  1.0000
  H   H9        1.0  0.34105  0.36348  0.81804  1.0000
  H   H10       1.0  0.84104  0.13652  0.68195  1.0000
  H   H11       1.0  0.65897  0.63652  0.18195  1.0000
  H   H12       1.0  0.15894  0.86348  0.31805  1.0000
  H   H13       1.0  0.37426  0.28080  0.65803  1.0000
  H   H14       1.0  0.87425  0.21920  0.84197  1.0000
  H   H15       1.0  0.62575  0.71920  0.34197  1.0000
  H   H16       1.0  0.12574  0.78080  0.15803  1.0000
  H   H17       1.0  0.80572  0.27435  0.57088  1.0000
  H   H18       1.0  0.30573  0.22564  0.92912  1.0000
  H   H19       1.0  0.19429  0.72565  0.42912  1.0000
  H   H20       1.0  0.69427  0.77435  0.07089  1.0000
  H   H21       1.0  0.00206  0.40468  0.59904  1.0000
  H   H22       1.0  0.50206  0.09531  0.90096  1.0000
  H   H23       1.0  0.99795  0.59531  0.40096  1.0000
  H   H24       1.0  0.49794  0.90469  0.09904  1.0000
  H   H25       1.0  0.82407  0.34557  0.44409  1.0000
  H   H26       1.0  0.32407  0.15442  0.05591  1.0000
  H   H27       1.0  0.17594  0.65442  0.55590  1.0000
  H   H28       1.0  0.67593  0.84557  0.94409  1.0000
  H   H29       1.0  0.42838  0.54999  0.64088  1.0000
  H   H30       1.0  0.92836  0.95000  0.85912  1.0000
  H   H31       1.0  0.57162  0.45000  0.35912  1.0000
  H   H32       1.0  0.07163  0.05000  0.14088  1.0000
  C   C1        1.0  0.83182  0.45488  0.73942  1.0000
  C   C2        1.0  0.33181  0.04512  0.76058  1.0000
  C   C3        1.0  0.16819  0.54512  0.26058  1.0000
  C   C4        1.0  0.66818  0.95489  0.23942  1.0000
  C   C5        1.0  0.48503  0.37901  0.77773  1.0000
  C   C6        1.0  0.98503  0.12099  0.72227  1.0000
  C   C7        1.0  0.51497  0.62099  0.22228  1.0000
  C   C8        1.0  0.01496  0.87901  0.27773  1.0000
  C   C9        1.0  0.49553  0.33969  0.69934  1.0000
  C   C10       1.0  0.99553  0.16031  0.80065  1.0000
  C   C11       1.0  0.50448  0.66031  0.30065  1.0000
  C   C12       1.0  0.00447  0.83969  0.19935  1.0000
  C   C13       1.0  0.80433  0.37319  0.59721  1.0000
  C   C14       1.0  0.30433  0.12680  0.90278  1.0000
  C   C15       1.0  0.19568  0.62681  0.40279  1.0000
  C   C16       1.0  0.69567  0.87319  0.09722  1.0000
  C   C17       1.0  0.64595  0.44096  0.54836  1.0000
  C   C18       1.0  0.14595  0.05903  0.95164  1.0000
  C   C19       1.0  0.35406  0.55904  0.45164  1.0000
  C   C20       1.0  0.85405  0.94096  0.04836  1.0000
  C   C21       1.0  0.68480  0.41500  0.46883  1.0000
  C   C22       1.0  0.18479  0.08500  0.03117  1.0000
  C   C23       1.0  0.31522  0.58500  0.53117  1.0000
  C   C24       1.0  0.81521  0.91500  0.96883  1.0000
  C   C25       1.0  0.45989  0.52686  0.57897  1.0000
  C   C26       1.0  0.95989  0.97313  0.92103  1.0000
  C   C27       1.0  0.54013  0.47313  0.42103  1.0000
  C   C28       1.0  0.04011  0.02686  0.07897  1.0000
  N   N1        1.0  0.69644  0.45020  0.80209  1.0000
  N   N2        1.0  0.19644  0.04980  0.69790  1.0000
  N   N3        1.0  0.30356  0.54980  0.19790  1.0000
  N   N4        1.0  0.80356  0.95020  0.30210  1.0000
  N   N5        1.0  0.71636  0.38865  0.67614  1.0000
  N   N6        1.0  0.21635  0.11134  0.82386  1.0000
  N   N7        1.0  0.28365  0.61135  0.32386  1.0000
  N   N8        1.0  0.78364  0.88866  0.17614  1.0000
  O   O1        1.0  0.13550  0.57934  0.90080  1.0000
  O   O2        1.0  0.63552  0.92067  0.59920  1.0000
  O   O3        1.0  0.86449  0.42067  0.09919  1.0000
  O   O4        1.0  0.36448  0.07934  0.40080  1.0000
  O   O5        1.0  0.57068  0.63874  0.96059  1.0000
  O   O6        1.0  0.07069  0.86126  0.53940  1.0000
  O   O7        1.0  0.42931  0.36126  0.03940  1.0000
  O   O8        1.0  0.92931  0.13874  0.46060  1.0000
  O   O9        1.0  0.18579  0.63740  0.04827  1.0000
  O   O10       1.0  0.68577  0.86260  0.45173  1.0000
  O   O11       1.0  0.81420  0.36260  0.95173  1.0000
  O   O12       1.0  0.31423  0.13740  0.54827  1.0000
