data_image0
_chemical_formula_structural       Co2P2H38C44N8O6
_chemical_formula_sum              "Co2 P2 H38 C44 N8 O6"
_cell_length_a       9.76997
_cell_length_b       10.3446
_cell_length_c       11.0404
_cell_angle_alpha    69.5376
_cell_angle_beta     78.2771
_cell_angle_gamma    81.6011

_space_group_name_H-M_alt    "P 1"
_space_group_IT_number       1

loop_
  _space_group_symop_operation_xyz
  'x, y, z'

loop_
  _atom_site_type_symbol
  _atom_site_label
  _atom_site_symmetry_multiplicity
  _atom_site_fract_x
  _atom_site_fract_y
  _atom_site_fract_z
  _atom_site_occupancy
  Co  Co1       1.0  0.59840  0.89201  0.37634  1.0000
  Co  Co2       1.0  0.40159  0.10799  0.62367  1.0000
  P   P1        1.0  0.68533  0.91057  0.63251  1.0000
  P   P2        1.0  0.31467  0.08943  0.36749  1.0000
  H   H1        1.0  0.69341  0.80318  0.75404  1.0000
  H   H2        1.0  0.30659  0.19682  0.24596  1.0000
  H   H3        1.0  0.37098  0.70839  0.04444  1.0000
  H   H4        1.0  0.62900  0.29162  0.95555  1.0000
  H   H5        1.0  0.53314  0.28142  0.18387  1.0000
  H   H6        1.0  0.46685  0.71859  0.81612  1.0000
  H   H7        1.0  0.28884  0.55064  0.27541  1.0000
  H   H8        1.0  0.71117  0.44937  0.72458  1.0000
  H   H9        1.0  0.37792  0.38351  0.33488  1.0000
  H   H10       1.0  0.62207  0.61650  0.66510  1.0000
  H   H11       1.0  0.39169  0.75888  0.27876  1.0000
  H   H12       1.0  0.60831  0.24111  0.72124  1.0000
  H   H13       1.0  0.85272  0.64435  0.43547  1.0000
  H   H14       1.0  0.14729  0.35563  0.56453  1.0000
  H   H15       1.0  0.96164  0.39892  0.49043  1.0000
  H   H16       1.0  0.03836  0.60107  0.50957  1.0000
  H   H17       1.0  0.84114  0.21371  0.47226  1.0000
  H   H18       1.0  0.15884  0.78628  0.52776  1.0000
  H   H19       1.0  0.61462  0.26744  0.38654  1.0000
  H   H20       1.0  0.38536  0.73255  0.61348  1.0000
  H   H21       1.0  0.23790  0.37761  0.97863  1.0000
  H   H22       1.0  0.76214  0.62238  0.02138  1.0000
  H   H23       1.0  0.80090  0.37638  0.15232  1.0000
  H   H24       1.0  0.19915  0.62362  0.84768  1.0000
  H   H25       1.0  0.14295  0.16386  0.11105  1.0000
  H   H26       1.0  0.85706  0.83611  0.88896  1.0000
  H   H27       1.0  0.05711  0.19426  0.25661  1.0000
  H   H28       1.0  0.94290  0.80572  0.74340  1.0000
  H   H29       1.0  0.87213  0.03811  0.37519  1.0000
  H   H30       1.0  0.12786  0.96189  0.62481  1.0000
  H   H31       1.0  0.60294  0.93829  0.08009  1.0000
  H   H32       1.0  0.39705  0.06173  0.91990  1.0000
  H   H33       1.0  0.67593  0.03269  0.83691  1.0000
  H   H34       1.0  0.32406  0.96733  0.16308  1.0000
  H   H35       1.0  0.87388  0.18001  0.73938  1.0000
  H   H36       1.0  0.12612  0.82000  0.26061  1.0000
  H   H37       1.0  0.00624  0.24258  0.88018  1.0000
  H   H38       1.0  0.99376  0.75742  0.11982  1.0000
  C   C1        1.0  0.42783  0.61683  0.02521  1.0000
  C   C2        1.0  0.57217  0.38317  0.97478  1.0000
  C   C3        1.0  0.44552  0.49421  0.12947  1.0000
  C   C4        1.0  0.55448  0.50580  0.87052  1.0000
  C   C5        1.0  0.51838  0.37736  0.10334  1.0000
  C   C6        1.0  0.48161  0.62265  0.89665  1.0000
  C   C7        1.0  0.39054  0.49022  0.26866  1.0000
  C   C8        1.0  0.60946  0.50979  0.73132  1.0000
  C   C9        1.0  0.47958  0.68525  0.30826  1.0000
  C   C10       1.0  0.52042  0.31475  0.69174  1.0000
  C   C11       1.0  0.67607  0.59183  0.37704  1.0000
  C   C12       1.0  0.32393  0.40816  0.62297  1.0000
  C   C13       1.0  0.80403  0.56251  0.42287  1.0000
  C   C14       1.0  0.19597  0.43748  0.57714  1.0000
  C   C15       1.0  0.86218  0.42594  0.45408  1.0000
  C   C16       1.0  0.13782  0.57404  0.54593  1.0000
  C   C17       1.0  0.79507  0.32052  0.44151  1.0000
  C   C18       1.0  0.20493  0.67947  0.55850  1.0000
  C   C19       1.0  0.66834  0.34908  0.39373  1.0000
  C   C20       1.0  0.33164  0.65091  0.60628  1.0000
  C   C21       1.0  0.61104  0.48639  0.36081  1.0000
  C   C22       1.0  0.38896  0.51361  0.63920  1.0000
  C   C23       1.0  0.13317  0.43086  0.98862  1.0000
  C   C24       1.0  0.86686  0.56913  0.01138  1.0000
  C   C25       1.0  0.02173  0.35999  0.07532  1.0000
  C   C26       1.0  0.97830  0.64000  0.92468  1.0000
  C   C27       1.0  0.88861  0.43035  0.08555  1.0000
  C   C28       1.0  0.11142  0.56965  0.91444  1.0000
  C   C29       1.0  0.04570  0.20964  0.15522  1.0000
  C   C30       1.0  0.95431  0.79034  0.84478  1.0000
  C   C31       1.0  0.85322  0.05352  0.27635  1.0000
  C   C32       1.0  0.14677  0.94648  0.72365  1.0000
  C   C33       1.0  0.76596  0.03591  0.11578  1.0000
  C   C34       1.0  0.23403  0.96411  0.88422  1.0000
  C   C35       1.0  0.69016  0.00364  0.03693  1.0000
  C   C36       1.0  0.30982  0.99639  0.96307  1.0000
  C   C37       1.0  0.73143  0.05722  0.90160  1.0000
  C   C38       1.0  0.26856  0.94281  0.09839  1.0000
  C   C39       1.0  0.84430  0.14202  0.84582  1.0000
  C   C40       1.0  0.15570  0.85800  0.15418  1.0000
  C   C41       1.0  0.91959  0.17660  0.92324  1.0000
  C   C42       1.0  0.08040  0.82340  0.07676  1.0000
  C   C43       1.0  0.87875  0.12139  0.05892  1.0000
  C   C44       1.0  0.12125  0.87862  0.94107  1.0000
  N   N1        1.0  0.48678  0.55060  0.31613  1.0000
  N   N2        1.0  0.51322  0.44939  0.68388  1.0000
  N   N3        1.0  0.59020  0.71464  0.34447  1.0000
  N   N4        1.0  0.40980  0.28536  0.65553  1.0000
  N   N5        1.0  0.93045  0.13028  0.16373  1.0000
  N   N6        1.0  0.06954  0.86972  0.83627  1.0000
  N   N7        1.0  0.75263  0.99592  0.25187  1.0000
  N   N8        1.0  0.24736  0.00408  0.74813  1.0000
  O   O1        1.0  0.61676  0.84083  0.55729  1.0000
  O   O2        1.0  0.38323  0.15917  0.44272  1.0000
  O   O3        1.0  0.82977  0.95693  0.57072  1.0000
  O   O4        1.0  0.17022  0.04307  0.42928  1.0000
  O   O5        1.0  0.57995  0.02401  0.67054  1.0000
  O   O6        1.0  0.42005  0.97599  0.32946  1.0000
