data_image0
_chemical_formula_structural       Co4P4H36C36N8O12
_chemical_formula_sum              "Co4 P4 H36 C36 N8 O12"
_cell_length_a       9.31345
_cell_length_b       9.90201
_cell_length_c       12.9305
_cell_angle_alpha    94.5748
_cell_angle_beta     110.902
_cell_angle_gamma    89.9728

_space_group_name_H-M_alt    "P 1"
_space_group_IT_number       1

loop_
  _space_group_symop_operation_xyz
  'x, y, z'

loop_
  _atom_site_type_symbol
  _atom_site_label
  _atom_site_symmetry_multiplicity
  _atom_site_fract_x
  _atom_site_fract_y
  _atom_site_fract_z
  _atom_site_occupancy
  Co  Co1       1.0  0.33379  0.39194  0.52733  1.0000
  Co  Co2       1.0  0.80556  0.10906  0.47150  1.0000
  Co  Co3       1.0  0.66725  0.60846  0.47175  1.0000
  Co  Co4       1.0  0.19368  0.89212  0.52692  1.0000
  P   P1        1.0  0.14485  0.19010  0.62212  1.0000
  P   P2        1.0  0.52241  0.31120  0.37697  1.0000
  P   P3        1.0  0.85696  0.81036  0.37661  1.0000
  P   P4        1.0  0.47663  0.68839  0.62188  1.0000
  H   H1        1.0  0.12029  0.22742  0.72229  1.0000
  H   H2        1.0  0.39863  0.27097  0.27753  1.0000
  H   H3        1.0  0.87967  0.77131  0.27604  1.0000
  H   H4        1.0  0.59892  0.73022  0.72175  1.0000
  H   H5        1.0  0.96071  0.36785  0.41322  1.0000
  H   H6        1.0  0.54736  0.13208  0.58674  1.0000
  H   H7        1.0  0.03971  0.63236  0.58663  1.0000
  H   H8        1.0  0.45196  0.86783  0.41517  1.0000
  H   H9        1.0  0.29773  0.56244  0.32431  1.0000
  H   H10       1.0  0.97329  0.93820  0.67502  1.0000
  H   H11       1.0  0.70217  0.43795  0.67527  1.0000
  H   H12       1.0  0.02628  0.06220  0.32591  1.0000
  H   H13       1.0  0.01142  0.58802  0.15902  1.0000
  H   H14       1.0  0.85150  0.91223  0.84057  1.0000
  H   H15       1.0  0.98830  0.41216  0.84065  1.0000
  H   H16       1.0  0.14821  0.08679  0.16018  1.0000
  H   H17       1.0  0.72613  0.57029  0.21676  1.0000
  H   H18       1.0  0.50897  0.92975  0.78382  1.0000
  H   H19       1.0  0.27385  0.42987  0.78329  1.0000
  H   H20       1.0  0.49008  0.06986  0.21703  1.0000
  H   H21       1.0  0.72310  0.40607  0.25805  1.0000
  H   H22       1.0  0.46478  0.09400  0.74257  1.0000
  H   H23       1.0  0.27708  0.59396  0.74200  1.0000
  H   H24       1.0  0.53465  0.90548  0.25791  1.0000
  H   H25       1.0  0.69010  0.61474  0.03580  1.0000
  H   H26       1.0  0.65414  0.88521  0.96459  1.0000
  H   H27       1.0  0.30988  0.38530  0.96414  1.0000
  H   H28       1.0  0.34567  0.11475  0.03610  1.0000
  H   H29       1.0  0.79340  0.20640  0.22601  1.0000
  H   H30       1.0  0.56722  0.29363  0.77426  1.0000
  H   H31       1.0  0.20727  0.79392  0.77431  1.0000
  H   H32       1.0  0.43253  0.70607  0.22593  1.0000
  H   H33       1.0  0.59959  0.53503  0.83361  1.0000
  H   H34       1.0  0.76616  0.96492  0.16666  1.0000
  H   H35       1.0  0.40058  0.46469  0.16634  1.0000
  H   H36       1.0  0.23466  0.03544  0.83404  1.0000
  C   C1        1.0  0.01409  0.42549  0.36776  1.0000
  C   C2        1.0  0.64602  0.07451  0.63202  1.0000
  C   C3        1.0  0.98624  0.57472  0.63206  1.0000
  C   C4        1.0  0.35375  0.92579  0.36959  1.0000
  C   C5        1.0  0.18464  0.52739  0.31814  1.0000
  C   C6        1.0  0.86620  0.97311  0.68120  1.0000
  C   C7        1.0  0.81533  0.47276  0.68138  1.0000
  C   C8        1.0  0.13348  0.02762  0.31992  1.0000
  C   C9        1.0  0.04421  0.54060  0.23641  1.0000
  C   C10       1.0  0.80712  0.95957  0.76313  1.0000
  C   C11       1.0  0.95568  0.45956  0.76324  1.0000
  C   C12       1.0  0.19251  0.04004  0.23786  1.0000
  C   C13       1.0  0.77053  0.46841  0.21082  1.0000
  C   C14       1.0  0.55918  0.03159  0.78954  1.0000
  C   C15       1.0  0.22951  0.53175  0.78922  1.0000
  C   C16       1.0  0.44005  0.96797  0.21129  1.0000
  C   C17       1.0  0.72297  0.41508  0.09067  1.0000
  C   C18       1.0  0.63186  0.08486  0.90964  1.0000
  C   C19       1.0  0.27696  0.58497  0.90939  1.0000
  C   C20       1.0  0.36746  0.91502  0.09101  1.0000
  C   C21       1.0  0.68436  0.50642  0.01020  1.0000
  C   C22       1.0  0.67395  0.99352  0.99010  1.0000
  C   C23       1.0  0.31555  0.49356  0.98980  1.0000
  C   C24       1.0  0.32579  0.00643  0.01055  1.0000
  C   C25       1.0  0.71118  0.27269  0.05842  1.0000
  C   C26       1.0  0.65269  0.22724  0.94185  1.0000
  C   C27       1.0  0.28871  0.72731  0.94180  1.0000
  C   C28       1.0  0.34686  0.77266  0.05843  1.0000
  C   C29       1.0  0.75186  0.17440  0.13752  1.0000
  C   C30       1.0  0.61432  0.32557  0.86276  1.0000
  C   C31       1.0  0.24848  0.82574  0.86283  1.0000
  C   C32       1.0  0.38544  0.67422  0.13740  1.0000
  C   C33       1.0  0.63163  0.46217  0.89624  1.0000
  C   C34       1.0  0.73549  0.03781  0.10404  1.0000
  C   C35       1.0  0.36834  0.53766  0.10379  1.0000
  C   C36       1.0  0.26484  0.96230  0.89651  1.0000
  N   N1        1.0  0.16470  0.45453  0.39951  1.0000
  N   N2        1.0  0.76502  0.04586  0.59996  1.0000
  N   N3        1.0  0.83559  0.54557  0.60005  1.0000
  N   N4        1.0  0.23453  0.95516  0.40139  1.0000
  N   N5        1.0  0.93792  0.47570  0.26905  1.0000
  N   N6        1.0  0.66825  0.02414  0.73074  1.0000
  N   N7        1.0  0.06215  0.52451  0.73082  1.0000
  N   N8        1.0  0.33118  0.97526  0.27037  1.0000
  O   O1        1.0  0.28122  0.27831  0.62461  1.0000
  O   O2        1.0  0.65821  0.22480  0.37492  1.0000
  O   O3        1.0  0.71964  0.72412  0.37547  1.0000
  O   O4        1.0  0.33917  0.77341  0.62189  1.0000
  O   O5        1.0  0.99645  0.21728  0.52551  1.0000
  O   O6        1.0  0.47142  0.28309  0.47428  1.0000
  O   O7        1.0  0.00574  0.78038  0.47211  1.0000
  O   O8        1.0  0.52920  0.71588  0.52517  1.0000
  O   O9        1.0  0.18270  0.03903  0.63053  1.0000
  O   O10       1.0  0.54808  0.46241  0.36747  1.0000
  O   O11       1.0  0.82217  0.96182  0.36869  1.0000
  O   O12       1.0  0.45228  0.53715  0.63233  1.0000
