data_image0
_chemical_formula_structural       Co4P4H36C36N8O12
_chemical_formula_sum              "Co4 P4 H36 C36 N8 O12"
_cell_length_a       9.07942
_cell_length_b       9.80119
_cell_length_c       12.5417
_cell_angle_alpha    90.9831
_cell_angle_beta     111.215
_cell_angle_gamma    89.9809

_space_group_name_H-M_alt    "P 1"
_space_group_IT_number       1

loop_
  _space_group_symop_operation_xyz
  'x, y, z'

loop_
  _atom_site_type_symbol
  _atom_site_label
  _atom_site_symmetry_multiplicity
  _atom_site_fract_x
  _atom_site_fract_y
  _atom_site_fract_z
  _atom_site_occupancy
  Co  Co1       1.0  0.32665  0.92094  0.53215  1.0000
  Co  Co2       1.0  0.79467  0.57911  0.46797  1.0000
  Co  Co3       1.0  0.67335  0.07906  0.46785  1.0000
  Co  Co4       1.0  0.20533  0.42090  0.53203  1.0000
  P   P1        1.0  0.50676  0.79629  0.38811  1.0000
  P   P2        1.0  0.11854  0.70370  0.61192  1.0000
  P   P3        1.0  0.49324  0.20371  0.61189  1.0000
  P   P4        1.0  0.88147  0.29630  0.38808  1.0000
  H   H1        1.0  0.35750  0.77833  0.30066  1.0000
  H   H2        1.0  0.05666  0.72188  0.69934  1.0000
  H   H3        1.0  0.64250  0.22167  0.69934  1.0000
  H   H4        1.0  0.94334  0.27812  0.30066  1.0000
  H   H5        1.0  0.96459  0.87063  0.39852  1.0000
  H   H6        1.0  0.56627  0.62960  0.60174  1.0000
  H   H7        1.0  0.03541  0.12938  0.60149  1.0000
  H   H8        1.0  0.43373  0.37041  0.39826  1.0000
  H   H9        1.0  0.29322  0.09355  0.30177  1.0000
  H   H10       1.0  0.99150  0.40631  0.69821  1.0000
  H   H11       1.0  0.70678  0.90645  0.69822  1.0000
  H   H12       1.0  0.00851  0.59369  0.30179  1.0000
  H   H13       1.0  0.99823  0.10012  0.12481  1.0000
  H   H14       1.0  0.87348  0.39971  0.87524  1.0000
  H   H15       1.0  0.00176  0.89988  0.87519  1.0000
  H   H16       1.0  0.12652  0.60030  0.12476  1.0000
  H   H17       1.0  0.71213  0.05716  0.15006  1.0000
  H   H18       1.0  0.56243  0.44293  0.85022  1.0000
  H   H19       1.0  0.28787  0.94284  0.84994  1.0000
  H   H20       1.0  0.43757  0.55707  0.14977  1.0000
  H   H21       1.0  0.71564  0.93236  0.24961  1.0000
  H   H22       1.0  0.46620  0.56766  0.75063  1.0000
  H   H23       1.0  0.28436  0.06764  0.75039  1.0000
  H   H24       1.0  0.53380  0.43234  0.24937  1.0000
  H   H25       1.0  0.94976  0.83510  0.07950  1.0000
  H   H26       1.0  0.87043  0.66495  0.92066  1.0000
  H   H27       1.0  0.05024  0.16490  0.92050  1.0000
  H   H28       1.0  0.12956  0.33505  0.07934  1.0000
  H   H29       1.0  0.47508  0.92997  0.15328  1.0000
  H   H30       1.0  0.32185  0.57050  0.84676  1.0000
  H   H31       1.0  0.52492  0.07003  0.84672  1.0000
  H   H32       1.0  0.67815  0.42950  0.15324  1.0000
  H   H33       1.0  0.20535  0.84243  0.07725  1.0000
  H   H34       1.0  0.12814  0.65813  0.92282  1.0000
  H   H35       1.0  0.79465  0.15757  0.92275  1.0000
  H   H36       1.0  0.87186  0.34187  0.07718  1.0000
  C   C1        1.0  0.01502  0.93347  0.34950  1.0000
  C   C2        1.0  0.66573  0.56672  0.65071  1.0000
  C   C3        1.0  0.98498  0.06653  0.65050  1.0000
  C   C4        1.0  0.33428  0.43328  0.34930  1.0000
  C   C5        1.0  0.18125  0.04830  0.29501  1.0000
  C   C6        1.0  0.88635  0.45165  0.70504  1.0000
  C   C7        1.0  0.81875  0.95170  0.70499  1.0000
  C   C8        1.0  0.11365  0.54836  0.29496  1.0000
  C   C9        1.0  0.03691  0.05189  0.20725  1.0000
  C   C10       1.0  0.82981  0.44803  0.79284  1.0000
  C   C11       1.0  0.96308  0.94811  0.79275  1.0000
  C   C12       1.0  0.17019  0.55197  0.20716  1.0000
  C   C13       1.0  0.76420  0.95833  0.18397  1.0000
  C   C14       1.0  0.58044  0.54173  0.81625  1.0000
  C   C15       1.0  0.23580  0.04167  0.81603  1.0000
  C   C16       1.0  0.41956  0.45827  0.18375  1.0000
  C   C17       1.0  0.72050  0.85077  0.08985  1.0000
  C   C18       1.0  0.63083  0.64934  0.91035  1.0000
  C   C19       1.0  0.27950  0.14923  0.91015  1.0000
  C   C20       1.0  0.36917  0.35066  0.08965  1.0000
  C   C21       1.0  0.82753  0.79928  0.04500  1.0000
  C   C22       1.0  0.78265  0.70079  0.95516  1.0000
  C   C23       1.0  0.17247  0.20072  0.95500  1.0000
  C   C24       1.0  0.21735  0.29920  0.04485  1.0000
  C   C25       1.0  0.56078  0.80177  0.04456  1.0000
  C   C26       1.0  0.51633  0.69846  0.95558  1.0000
  C   C27       1.0  0.43922  0.19823  0.95544  1.0000
  C   C28       1.0  0.48367  0.30154  0.04442  1.0000
  C   C29       1.0  0.44412  0.85212  0.08572  1.0000
  C   C30       1.0  0.35851  0.64827  0.91438  1.0000
  C   C31       1.0  0.55587  0.14789  0.91428  1.0000
  C   C32       1.0  0.64149  0.35173  0.08562  1.0000
  C   C33       1.0  0.29147  0.80171  0.04302  1.0000
  C   C34       1.0  0.24853  0.69871  0.95708  1.0000
  C   C35       1.0  0.70853  0.19829  0.95698  1.0000
  C   C36       1.0  0.75147  0.30129  0.04292  1.0000
  N   N1        1.0  0.16592  0.97372  0.38345  1.0000
  N   N2        1.0  0.78260  0.52636  0.61667  1.0000
  N   N3        1.0  0.83409  0.02628  0.61654  1.0000
  N   N4        1.0  0.21741  0.47364  0.38333  1.0000
  N   N5        1.0  0.93338  0.97873  0.24314  1.0000
  N   N6        1.0  0.69042  0.52133  0.75702  1.0000
  N   N7        1.0  0.06661  0.02127  0.75686  1.0000
  N   N8        1.0  0.30958  0.47867  0.24298  1.0000
  O   O1        1.0  0.48104  0.80346  0.50353  1.0000
  O   O2        1.0  0.97744  0.69679  0.49648  1.0000
  O   O3        1.0  0.51896  0.19654  0.49647  1.0000
  O   O4        1.0  0.02257  0.30321  0.50352  1.0000
  O   O5        1.0  0.60211  0.67121  0.37853  1.0000
  O   O6        1.0  0.22373  0.82854  0.62156  1.0000
  O   O7        1.0  0.39790  0.32879  0.62147  1.0000
  O   O8        1.0  0.77627  0.17147  0.37844  1.0000
  O   O9        1.0  0.57255  0.93144  0.36158  1.0000
  O   O10       1.0  0.21051  0.56834  0.63842  1.0000
  O   O11       1.0  0.42745  0.06857  0.63842  1.0000
  O   O12       1.0  0.78949  0.43166  0.36158  1.0000
