data_image0
_chemical_formula_structural       U2H24C14N4O14
_chemical_formula_sum              "U2 H24 C14 N4 O14"
_cell_length_a       8.09966
_cell_length_b       8.4626
_cell_length_c       9.19513
_cell_angle_alpha    86.3436
_cell_angle_beta     74.3984
_cell_angle_gamma    69.5429

_space_group_name_H-M_alt    "P 1"
_space_group_IT_number       1

loop_
  _space_group_symop_operation_xyz
  'x, y, z'

loop_
  _atom_site_type_symbol
  _atom_site_label
  _atom_site_symmetry_multiplicity
  _atom_site_fract_x
  _atom_site_fract_y
  _atom_site_fract_z
  _atom_site_occupancy
  U   U1        1.0  0.30542  0.20574  0.24609  1.0000
  U   U2        1.0  0.69458  0.79426  0.75391  1.0000
  H   H1        1.0  0.81635  0.42273  0.34169  1.0000
  H   H2        1.0  0.18365  0.57727  0.65831  1.0000
  H   H3        1.0  0.61734  0.10970  0.42862  1.0000
  H   H4        1.0  0.38266  0.89030  0.57138  1.0000
  H   H5        1.0  0.81432  0.16159  0.41960  1.0000
  H   H6        1.0  0.18568  0.83841  0.58040  1.0000
  H   H7        1.0  0.82274  0.17372  0.66750  1.0000
  H   H8        1.0  0.17726  0.82627  0.33250  1.0000
  H   H9        1.0  0.80394  0.38451  0.69980  1.0000
  H   H10       1.0  0.19606  0.61548  0.30020  1.0000
  H   H11       1.0  0.07435  0.07010  0.80038  1.0000
  H   H12       1.0  0.92565  0.92990  0.19962  1.0000
  H   H13       1.0  0.05286  0.28148  0.83204  1.0000
  H   H14       1.0  0.94714  0.71852  0.16797  1.0000
  H   H15       1.0  0.88468  0.17534  0.05939  1.0000
  H   H16       1.0  0.11532  0.82466  0.94061  1.0000
  H   H17       1.0  0.73439  0.34784  0.98728  1.0000
  H   H18       1.0  0.26561  0.65216  0.01272  1.0000
  H   H19       1.0  0.63284  0.71238  0.29763  1.0000
  H   H20       1.0  0.36716  0.28762  0.70237  1.0000
  H   H21       1.0  0.50130  0.62543  0.22184  1.0000
  H   H22       1.0  0.49869  0.37457  0.77815  1.0000
  H   H23       1.0  0.73085  0.59740  0.12028  1.0000
  H   H24       1.0  0.26915  0.40260  0.87972  1.0000
  C   C1        1.0  0.03923  0.24621  0.53497  1.0000
  C   C2        1.0  0.96077  0.75380  0.46503  1.0000
  C   C3        1.0  0.89937  0.25332  0.68168  1.0000
  C   C4        1.0  0.10063  0.74668  0.31832  1.0000
  C   C5        1.0  0.97767  0.20043  0.81839  1.0000
  C   C6        1.0  0.02233  0.79957  0.18161  1.0000
  C   C7        1.0  0.82499  0.21597  0.96283  1.0000
  C   C8        1.0  0.17501  0.78403  0.03717  1.0000
  C   C9        1.0  0.70856  0.11042  0.95999  1.0000
  C   C10       1.0  0.29144  0.88958  0.04001  1.0000
  C   C11       1.0  0.61235  0.33651  0.33835  1.0000
  C   C12       1.0  0.38765  0.66349  0.66165  1.0000
  C   C13       1.0  0.63766  0.60544  0.23352  1.0000
  C   C14       1.0  0.36234  0.39456  0.76648  1.0000
  N   N1        1.0  0.69677  0.45074  0.31303  1.0000
  N   N2        1.0  0.30323  0.54926  0.68697  1.0000
  N   N3        1.0  0.68856  0.18979  0.39959  1.0000
  N   N4        1.0  0.31143  0.81021  0.60041  1.0000
  O   O1        1.0  0.15549  0.38785  0.17299  1.0000
  O   O2        1.0  0.84451  0.61215  0.82701  1.0000
  O   O3        1.0  0.44842  0.02165  0.32318  1.0000
  O   O4        1.0  0.55158  0.97835  0.67682  1.0000
  O   O5        1.0  0.03267  0.17273  0.41804  1.0000
  O   O6        1.0  0.96733  0.82727  0.58196  1.0000
  O   O7        1.0  0.16301  0.31041  0.51873  1.0000
  O   O8        1.0  0.83699  0.68960  0.48127  1.0000
  O   O9        1.0  0.78149  0.96921  0.88749  1.0000
  O   O10       1.0  0.21851  0.03079  0.11251  1.0000
  O   O11       1.0  0.53934  0.16765  0.03054  1.0000
  O   O12       1.0  0.46065  0.83235  0.96946  1.0000
  O   O13       1.0  0.46049  0.36880  0.30291  1.0000
  O   O14       1.0  0.53952  0.63120  0.69709  1.0000
