data_image0
_chemical_formula_structural       Cd2P2H20C12N2O14
_chemical_formula_sum              "Cd2 P2 H20 C12 N2 O14"
_cell_length_a       6.90411
_cell_length_b       7.38395
_cell_length_c       10.6148
_cell_angle_alpha    84.3023
_cell_angle_beta     75.5928
_cell_angle_gamma    68.4684

_space_group_name_H-M_alt    "P 1"
_space_group_IT_number       1

loop_
  _space_group_symop_operation_xyz
  'x, y, z'

loop_
  _atom_site_type_symbol
  _atom_site_label
  _atom_site_symmetry_multiplicity
  _atom_site_fract_x
  _atom_site_fract_y
  _atom_site_fract_z
  _atom_site_occupancy
  Cd  Cd1       1.0  0.25457  0.81586  0.95402  1.0000
  Cd  Cd2       1.0  0.74543  0.18414  0.04598  1.0000
  P   P1        1.0  0.19685  0.21829  0.12464  1.0000
  P   P2        1.0  0.80315  0.78171  0.87536  1.0000
  H   H1        1.0  0.21259  0.53471  0.82898  1.0000
  H   H2        1.0  0.78740  0.46529  0.17102  1.0000
  H   H3        1.0  0.35509  0.41279  0.92819  1.0000
  H   H4        1.0  0.64491  0.58721  0.07181  1.0000
  H   H5        1.0  0.13425  0.57786  0.17332  1.0000
  H   H6        1.0  0.86575  0.42213  0.82668  1.0000
  H   H7        1.0  0.35653  0.59441  0.17886  1.0000
  H   H8        1.0  0.64347  0.40559  0.82114  1.0000
  H   H9        1.0  0.10732  0.88807  0.27044  1.0000
  H   H10       1.0  0.89267  0.11194  0.72957  1.0000
  H   H11       1.0  0.02075  0.25952  0.47447  1.0000
  H   H12       1.0  0.97925  0.74049  0.52552  1.0000
  H   H13       1.0  0.12949  0.40505  0.63787  1.0000
  H   H14       1.0  0.87051  0.59496  0.36213  1.0000
  H   H15       1.0  0.51869  0.35372  0.60648  1.0000
  H   H16       1.0  0.48132  0.64627  0.39351  1.0000
  H   H17       1.0  0.78137  0.16880  0.40679  1.0000
  H   H18       1.0  0.21864  0.83119  0.59320  1.0000
  H   H19       1.0  0.42832  0.92841  0.21566  1.0000
  H   H20       1.0  0.57168  0.07159  0.78434  1.0000
  C   C1        1.0  0.33562  0.14726  0.35576  1.0000
  C   C2        1.0  0.66438  0.85274  0.64424  1.0000
  C   C3        1.0  0.18544  0.24921  0.46250  1.0000
  C   C4        1.0  0.81457  0.75080  0.53751  1.0000
  C   C5        1.0  0.24637  0.32704  0.55364  1.0000
  C   C6        1.0  0.75363  0.67296  0.44635  1.0000
  C   C7        1.0  0.46238  0.30018  0.53600  1.0000
  C   C8        1.0  0.53762  0.69982  0.46400  1.0000
  C   C9        1.0  0.60935  0.20134  0.42854  1.0000
  C   C10       1.0  0.39065  0.79865  0.57145  1.0000
  C   C11       1.0  0.28194  0.04877  0.25998  1.0000
  C   C12       1.0  0.71806  0.95123  0.74002  1.0000
  N   N1        1.0  0.54544  0.12807  0.33979  1.0000
  N   N2        1.0  0.45458  0.87193  0.66021  1.0000
  O   O1        1.0  0.09912  0.11501  0.05166  1.0000
  O   O2        1.0  0.90088  0.88499  0.94835  1.0000
  O   O3        1.0  0.35083  0.51370  0.85568  1.0000
  O   O4        1.0  0.64917  0.48629  0.14432  1.0000
  O   O5        1.0  0.39824  0.24793  0.03779  1.0000
  O   O6        1.0  0.60176  0.75207  0.96221  1.0000
  O   O7        1.0  0.21163  0.67323  0.16639  1.0000
  O   O8        1.0  0.78837  0.32677  0.83361  1.0000
  O   O9        1.0  0.02920  0.41073  0.18470  1.0000
  O   O10       1.0  0.97080  0.58927  0.81530  1.0000
  O   O11       1.0  0.11337  0.98342  0.32737  1.0000
  O   O12       1.0  0.88663  0.01657  0.67263  1.0000
  O   O13       1.0  0.69171  0.02754  0.24071  1.0000
  O   O14       1.0  0.30828  0.97246  0.75929  1.0000
