data_image0
_chemical_formula_structural       Cd4H28C20N4Cl8O8
_chemical_formula_sum              "Cd4 H28 C20 N4 Cl8 O8"
_cell_length_a       6.28476
_cell_length_b       7.3639
_cell_length_c       19.2698
_cell_angle_alpha    90
_cell_angle_beta     89.9994
_cell_angle_gamma    90.0001

_space_group_name_H-M_alt    "P 1"
_space_group_IT_number       1

loop_
  _space_group_symop_operation_xyz
  'x, y, z'

loop_
  _atom_site_type_symbol
  _atom_site_label
  _atom_site_symmetry_multiplicity
  _atom_site_fract_x
  _atom_site_fract_y
  _atom_site_fract_z
  _atom_site_occupancy
  Cd  Cd1       1.0  0.98814  0.05915  0.75090  1.0000
  Cd  Cd2       1.0  0.51186  0.94085  0.25090  1.0000
  Cd  Cd3       1.0  0.01186  0.55915  0.74910  1.0000
  Cd  Cd4       1.0  0.48814  0.44085  0.24910  1.0000
  H   H1        1.0  0.30285  0.33783  0.59914  1.0000
  H   H2        1.0  0.19716  0.66217  0.09913  1.0000
  H   H3        1.0  0.69715  0.83783  0.90087  1.0000
  H   H4        1.0  0.80286  0.16217  0.40087  1.0000
  H   H5        1.0  0.43754  0.80947  0.65957  1.0000
  H   H6        1.0  0.06245  0.19053  0.15957  1.0000
  H   H7        1.0  0.56245  0.30948  0.84043  1.0000
  H   H8        1.0  0.93754  0.69052  0.34043  1.0000
  H   H9        1.0  0.34278  0.25683  0.47188  1.0000
  H   H10       1.0  0.15723  0.74318  0.97188  1.0000
  H   H11       1.0  0.65723  0.75683  0.02812  1.0000
  H   H12       1.0  0.84277  0.24318  0.52812  1.0000
  H   H13       1.0  0.43529  0.93668  0.44005  1.0000
  H   H14       1.0  0.06471  0.06333  0.94005  1.0000
  H   H15       1.0  0.56473  0.43667  0.05995  1.0000
  H   H16       1.0  0.93528  0.56334  0.55995  1.0000
  H   H17       1.0  0.48789  0.70927  0.53623  1.0000
  H   H18       1.0  0.01210  0.29073  0.03623  1.0000
  H   H19       1.0  0.51211  0.20927  0.96377  1.0000
  H   H20       1.0  0.98789  0.79073  0.46376  1.0000
  H   H21       1.0  0.53202  0.03928  0.75505  1.0000
  H   H22       1.0  0.96798  0.96073  0.25505  1.0000
  H   H23       1.0  0.46797  0.53928  0.74495  1.0000
  H   H24       1.0  0.03203  0.46072  0.24495  1.0000
  H   H25       1.0  0.62706  0.86403  0.79246  1.0000
  H   H26       1.0  0.87294  0.13597  0.29245  1.0000
  H   H27       1.0  0.37294  0.36403  0.70755  1.0000
  H   H28       1.0  0.12706  0.63597  0.20754  1.0000
  C   C1        1.0  0.34322  0.20254  0.58095  1.0000
  C   C2        1.0  0.15678  0.79746  0.08095  1.0000
  C   C3        1.0  0.65677  0.70254  0.91905  1.0000
  C   C4        1.0  0.84322  0.29745  0.41904  1.0000
  C   C5        1.0  0.42129  0.90161  0.61594  1.0000
  C   C6        1.0  0.07870  0.09839  0.11594  1.0000
  C   C7        1.0  0.57870  0.40160  0.88406  1.0000
  C   C8        1.0  0.92130  0.59839  0.38405  1.0000
  C   C9        1.0  0.36603  0.15461  0.51199  1.0000
  C   C10       1.0  0.13398  0.84539  0.01199  1.0000
  C   C11       1.0  0.63398  0.65461  0.98801  1.0000
  C   C12       1.0  0.86603  0.34539  0.48801  1.0000
  C   C13       1.0  0.41851  0.97621  0.49427  1.0000
  C   C14       1.0  0.08149  0.02380  0.99427  1.0000
  C   C15       1.0  0.58149  0.47620  0.00573  1.0000
  C   C16       1.0  0.91851  0.52381  0.50573  1.0000
  C   C17       1.0  0.44647  0.84984  0.54729  1.0000
  C   C18       1.0  0.05353  0.15016  0.04729  1.0000
  C   C19       1.0  0.55351  0.34984  0.95271  1.0000
  C   C20       1.0  0.94648  0.65016  0.45272  1.0000
  N   N1        1.0  0.37155  0.07604  0.63158  1.0000
  N   N2        1.0  0.12845  0.92395  0.13158  1.0000
  N   N3        1.0  0.62844  0.57605  0.86843  1.0000
  N   N4        1.0  0.87155  0.42394  0.36843  1.0000
  Cl  Cl1       1.0  0.06800  0.30713  0.84338  1.0000
  Cl  Cl2       1.0  0.43200  0.69287  0.34338  1.0000
  Cl  Cl3       1.0  0.93200  0.80713  0.65662  1.0000
  Cl  Cl4       1.0  0.56800  0.19287  0.15662  1.0000
  Cl  Cl5       1.0  0.84832  0.31165  0.66853  1.0000
  Cl  Cl6       1.0  0.65168  0.68835  0.16853  1.0000
  Cl  Cl7       1.0  0.15167  0.81165  0.83148  1.0000
  Cl  Cl8       1.0  0.34832  0.18835  0.33148  1.0000
  O   O1        1.0  0.34653  0.12505  0.69805  1.0000
  O   O2        1.0  0.15347  0.87494  0.19805  1.0000
  O   O3        1.0  0.65346  0.62506  0.80195  1.0000
  O   O4        1.0  0.84653  0.37493  0.30195  1.0000
  O   O5        1.0  0.64077  0.99856  0.78950  1.0000
  O   O6        1.0  0.85923  0.00144  0.28950  1.0000
  O   O7        1.0  0.35923  0.49856  0.71050  1.0000
  O   O8        1.0  0.14077  0.50144  0.21050  1.0000
