data_image0
_chemical_formula_structural       CdH34C38S2N8
_chemical_formula_sum              "Cd1 H34 C38 S2 N8"
_cell_length_a       5.67746
_cell_length_b       8.16624
_cell_length_c       20.2301
_cell_angle_alpha    94.5488
_cell_angle_beta     97.4164
_cell_angle_gamma    102.441

_space_group_name_H-M_alt    "P 1"
_space_group_IT_number       1

loop_
  _space_group_symop_operation_xyz
  'x, y, z'

loop_
  _atom_site_type_symbol
  _atom_site_label
  _atom_site_symmetry_multiplicity
  _atom_site_fract_x
  _atom_site_fract_y
  _atom_site_fract_z
  _atom_site_occupancy
  Cd  Cd1       1.0  0.50001  0.50000  0.50000  1.0000
  H   H1        1.0  0.99711  0.78903  0.48046  1.0000
  H   H2        1.0  0.00289  0.21097  0.51954  1.0000
  H   H3        1.0  0.30273  0.63808  0.37022  1.0000
  H   H4        1.0  0.69727  0.36192  0.62978  1.0000
  H   H5        1.0  0.41643  0.82585  0.28356  1.0000
  H   H6        1.0  0.58356  0.17416  0.71644  1.0000
  H   H7        1.0  0.14343  0.97961  0.39810  1.0000
  H   H8        1.0  0.85657  0.02039  0.60190  1.0000
  H   H9        1.0  0.70702  0.01371  0.23821  1.0000
  H   H10       1.0  0.29296  0.98629  0.76179  1.0000
  H   H11       1.0  0.22813  0.13928  0.31670  1.0000
  H   H12       1.0  0.77186  0.86072  0.68330  1.0000
  H   H13       1.0  0.79765  0.27540  0.17329  1.0000
  H   H14       1.0  0.20235  0.72459  0.82671  1.0000
  H   H15       1.0  0.83194  0.07116  0.14858  1.0000
  H   H16       1.0  0.16806  0.92884  0.85142  1.0000
  H   H17       1.0  0.48081  0.34825  0.26982  1.0000
  H   H18       1.0  0.51919  0.65173  0.73018  1.0000
  H   H19       1.0  0.28231  0.48724  0.07364  1.0000
  H   H20       1.0  0.71769  0.51276  0.92636  1.0000
  H   H21       1.0  0.08542  0.53021  0.13002  1.0000
  H   H22       1.0  0.91460  0.46979  0.86998  1.0000
  H   H23       1.0  0.34004  0.13687  0.10800  1.0000
  H   H24       1.0  0.65996  0.86312  0.89200  1.0000
  H   H25       1.0  0.24825  0.17888  0.02488  1.0000
  H   H26       1.0  0.75174  0.82112  0.97511  1.0000
  H   H27       1.0  0.06589  0.01371  0.06059  1.0000
  H   H28       1.0  0.93410  0.98629  0.93941  1.0000
  H   H29       1.0  0.70100  0.14605  0.02903  1.0000
  H   H30       1.0  0.29899  0.85396  0.97098  1.0000
  H   H31       1.0  0.89572  0.31175  0.99720  1.0000
  H   H32       1.0  0.10428  0.68825  0.00280  1.0000
  H   H33       1.0  0.71727  0.35907  0.05928  1.0000
  H   H34       1.0  0.28273  0.64093  0.94072  1.0000
  C   C1        1.0  0.87366  0.80156  0.43621  1.0000
  C   C2        1.0  0.12634  0.19844  0.56379  1.0000
  C   C3        1.0  0.48602  0.71785  0.37506  1.0000
  C   C4        1.0  0.51398  0.28215  0.62494  1.0000
  C   C5        1.0  0.55198  0.82265  0.32658  1.0000
  C   C6        1.0  0.44802  0.17735  0.67342  1.0000
  C   C7        1.0  0.79162  0.92072  0.33261  1.0000
  C   C8        1.0  0.20837  0.07928  0.66739  1.0000
  C   C9        1.0  0.95437  0.90854  0.38974  1.0000
  C   C10       1.0  0.04562  0.09147  0.61027  1.0000
  C   C11       1.0  0.85619  0.02248  0.27926  1.0000
  C   C12       1.0  0.14381  0.97752  0.72074  1.0000
  C   C13       1.0  0.07699  0.12417  0.27570  1.0000
  C   C14       1.0  0.92300  0.87583  0.72430  1.0000
  C   C15       1.0  0.12398  0.22219  0.22084  1.0000
  C   C16       1.0  0.87601  0.77780  0.77916  1.0000
  C   C17       1.0  0.93241  0.20344  0.16039  1.0000
  C   C18       1.0  0.06759  0.79656  0.83961  1.0000
  C   C19       1.0  0.34406  0.33730  0.22536  1.0000
  C   C20       1.0  0.65594  0.66269  0.77464  1.0000
  C   C21       1.0  0.39126  0.44939  0.17591  1.0000
  C   C22       1.0  0.60875  0.55060  0.82409  1.0000
  C   C23       1.0  0.19857  0.44160  0.11682  1.0000
  C   C24       1.0  0.80143  0.55839  0.88318  1.0000
  C   C25       1.0  0.03466  0.26374  0.09750  1.0000
  C   C26       1.0  0.96533  0.73626  0.90250  1.0000
  C   C27       1.0  0.18177  0.14167  0.07136  1.0000
  C   C28       1.0  0.81822  0.85833  0.92864  1.0000
  C   C29       1.0  0.82500  0.27076  0.04276  1.0000
  C   C30       1.0  0.17500  0.72924  0.95724  1.0000
  C   C31       1.0  0.61098  0.56905  0.18172  1.0000
  C   C32       1.0  0.38903  0.43095  0.81828  1.0000
  C   C33       1.0  0.80923  0.57894  0.23340  1.0000
  C   C34       1.0  0.19077  0.42105  0.76660  1.0000
  C   C35       1.0  0.65013  0.68743  0.13440  1.0000
  C   C36       1.0  0.34988  0.31258  0.86559  1.0000
  C   C37       1.0  0.08258  0.63981  0.57672  1.0000
  C   C38       1.0  0.91744  0.36021  0.42328  1.0000
  S   S1        1.0  0.37131  0.73184  0.58662  1.0000
  S   S2        1.0  0.62871  0.26818  0.41338  1.0000
  N   N1        1.0  0.64392  0.70703  0.42929  1.0000
  N   N2        1.0  0.35608  0.29298  0.57072  1.0000
  N   N3        1.0  0.87266  0.57269  0.56881  1.0000
  N   N4        1.0  0.12736  0.42732  0.43119  1.0000
  N   N5        1.0  0.97884  0.58632  0.27400  1.0000
  N   N6        1.0  0.02116  0.41367  0.72600  1.0000
  N   N7        1.0  0.68128  0.78633  0.09566  1.0000
  N   N8        1.0  0.31874  0.21364  0.90434  1.0000
