data_image0
_chemical_formula_structural       Ag2H36C40N10O10
_chemical_formula_sum              "Ag2 H36 C40 N10 O10"
_cell_length_a       9.14276
_cell_length_b       9.56206
_cell_length_c       13.3807
_cell_angle_alpha    74.9555
_cell_angle_beta     85.3375
_cell_angle_gamma    66.8402

_space_group_name_H-M_alt    "P 1"
_space_group_IT_number       1

loop_
  _space_group_symop_operation_xyz
  'x, y, z'

loop_
  _atom_site_type_symbol
  _atom_site_label
  _atom_site_symmetry_multiplicity
  _atom_site_fract_x
  _atom_site_fract_y
  _atom_site_fract_z
  _atom_site_occupancy
  Ag  Ag1       1.0  0.06098  0.20027  0.50677  1.0000
  Ag  Ag2       1.0  0.93901  0.79973  0.49322  1.0000
  H   H1        1.0  0.35430  0.09745  0.14835  1.0000
  H   H2        1.0  0.64570  0.90255  0.85165  1.0000
  H   H3        1.0  0.54269  0.30566  0.17134  1.0000
  H   H4        1.0  0.45730  0.69434  0.82867  1.0000
  H   H5        1.0  0.31623  0.56512  0.14272  1.0000
  H   H6        1.0  0.68376  0.43488  0.85728  1.0000
  H   H7        1.0  0.42555  0.16115  0.81974  1.0000
  H   H8        1.0  0.57446  0.83885  0.18026  1.0000
  H   H9        1.0  0.11742  0.24042  0.86844  1.0000
  H   H10       1.0  0.88258  0.75958  0.13155  1.0000
  H   H11       1.0  0.17069  0.32104  0.03512  1.0000
  H   H12       1.0  0.82931  0.67896  0.96487  1.0000
  H   H13       1.0  0.28649  0.40282  0.94573  1.0000
  H   H14       1.0  0.71351  0.59718  0.05427  1.0000
  H   H15       1.0  0.89245  0.25587  0.12888  1.0000
  H   H16       1.0  0.10754  0.74413  0.87112  1.0000
  H   H17       1.0  0.71867  0.10107  0.04769  1.0000
  H   H18       1.0  0.28133  0.89893  0.95231  1.0000
  H   H19       1.0  0.83120  0.18776  0.95838  1.0000
  H   H20       1.0  0.16879  0.81224  0.04162  1.0000
  H   H21       1.0  0.13964  0.28217  0.68886  1.0000
  H   H22       1.0  0.86036  0.71783  0.31115  1.0000
  H   H23       1.0  0.75172  0.69149  0.74648  1.0000
  H   H24       1.0  0.24828  0.30850  0.25352  1.0000
  H   H25       1.0  0.60637  0.69355  0.59598  1.0000
  H   H26       1.0  0.39364  0.30645  0.40402  1.0000
  H   H27       1.0  0.73743  0.48552  0.49831  1.0000
  H   H28       1.0  0.26257  0.51448  0.50169  1.0000
  H   H29       1.0  0.91973  0.18361  0.31184  1.0000
  H   H30       1.0  0.08028  0.81639  0.68816  1.0000
  H   H31       1.0  0.25186  0.78674  0.20871  1.0000
  H   H32       1.0  0.74814  0.21326  0.79129  1.0000
  H   H33       1.0  0.43877  0.74157  0.35410  1.0000
  H   H34       1.0  0.56123  0.25843  0.64590  1.0000
  H   H35       1.0  0.34861  0.91808  0.47350  1.0000
  H   H36       1.0  0.65139  0.08192  0.52650  1.0000
  C   C1        1.0  0.37334  0.14929  0.98191  1.0000
  C   C2        1.0  0.62667  0.85071  0.01809  1.0000
  C   C3        1.0  0.41722  0.05540  0.08259  1.0000
  C   C4        1.0  0.58279  0.94460  0.91741  1.0000
  C   C5        1.0  0.52512  0.39123  0.09653  1.0000
  C   C6        1.0  0.47487  0.60877  0.90348  1.0000
  C   C7        1.0  0.62870  0.35310  0.01581  1.0000
  C   C8        1.0  0.37130  0.64691  0.98419  1.0000
  C   C9        1.0  0.39801  0.53679  0.08012  1.0000
  C   C10       1.0  0.60198  0.46321  0.91988  1.0000
  C   C11       1.0  0.45769  0.09162  0.89931  1.0000
  C   C12       1.0  0.54232  0.90837  0.10069  1.0000
  C   C13       1.0  0.23970  0.30935  0.96419  1.0000
  C   C14       1.0  0.76031  0.69065  0.03581  1.0000
  C   C15       1.0  0.04679  0.47908  0.82203  1.0000
  C   C16       1.0  0.95321  0.52092  0.17797  1.0000
  C   C17       1.0  0.76397  0.19545  0.03010  1.0000
  C   C18       1.0  0.23603  0.80455  0.96990  1.0000
  C   C19       1.0  0.96204  0.01610  0.16380  1.0000
  C   C20       1.0  0.03796  0.98389  0.83620  1.0000
  C   C21       1.0  0.02021  0.37295  0.67327  1.0000
  C   C22       1.0  0.97979  0.62705  0.32672  1.0000
  C   C23       1.0  0.95508  0.48292  0.73259  1.0000
  C   C24       1.0  0.04492  0.51708  0.26741  1.0000
  C   C25       1.0  0.80485  0.60139  0.70385  1.0000
  C   C26       1.0  0.19515  0.39861  0.29615  1.0000
  C   C27       1.0  0.72355  0.60259  0.61966  1.0000
  C   C28       1.0  0.27645  0.39741  0.38034  1.0000
  C   C29       1.0  0.79588  0.48771  0.56537  1.0000
  C   C30       1.0  0.20412  0.51229  0.43463  1.0000
  C   C31       1.0  0.03391  0.08567  0.31796  1.0000
  C   C32       1.0  0.96609  0.91433  0.68204  1.0000
  C   C33       1.0  0.07375  0.99128  0.24808  1.0000
  C   C34       1.0  0.92625  0.00872  0.75192  1.0000
  C   C35       1.0  0.21972  0.86285  0.26178  1.0000
  C   C36       1.0  0.78029  0.13716  0.73821  1.0000
  C   C37       1.0  0.32129  0.83597  0.34252  1.0000
  C   C38       1.0  0.67871  0.16404  0.65748  1.0000
  C   C39       1.0  0.27349  0.93565  0.40876  1.0000
  C   C40       1.0  0.72651  0.06435  0.59124  1.0000
  N   N1        1.0  0.13632  0.33556  0.87811  1.0000
  N   N2        1.0  0.86368  0.66444  0.12189  1.0000
  N   N3        1.0  0.87257  0.16396  0.11483  1.0000
  N   N4        1.0  0.12743  0.83604  0.88517  1.0000
  N   N5        1.0  0.94290  0.37543  0.59090  1.0000
  N   N6        1.0  0.05710  0.62457  0.40910  1.0000
  N   N7        1.0  0.13124  0.05737  0.39771  1.0000
  N   N8        1.0  0.86876  0.94262  0.60229  1.0000
  N   N9        1.0  0.37629  0.00226  0.64953  1.0000
  N   N10       1.0  0.62371  0.99775  0.35047  1.0000
  O   O1        1.0  0.03803  0.60467  0.83942  1.0000
  O   O2        1.0  0.96197  0.39533  0.16058  1.0000
  O   O3        1.0  0.95780  0.89849  0.14099  1.0000
  O   O4        1.0  0.04220  0.10151  0.85901  1.0000
  O   O5        1.0  0.34783  0.14773  0.61140  1.0000
  O   O6        1.0  0.65217  0.85227  0.38861  1.0000
  O   O7        1.0  0.50648  0.91100  0.69577  1.0000
  O   O8        1.0  0.49353  0.08900  0.30424  1.0000
  O   O9        1.0  0.27122  0.94983  0.63946  1.0000
  O   O10       1.0  0.72878  0.05018  0.36054  1.0000
