data_image0
_chemical_formula_structural       Zn2H22C28N2O10
_chemical_formula_sum              "Zn2 H22 C28 N2 O10"
_cell_length_a       8.0516
_cell_length_b       9.66368
_cell_length_c       10.5724
_cell_angle_alpha    107.623
_cell_angle_beta     100.473
_cell_angle_gamma    112.593

_space_group_name_H-M_alt    "P 1"
_space_group_IT_number       1

loop_
  _space_group_symop_operation_xyz
  'x, y, z'

loop_
  _atom_site_type_symbol
  _atom_site_label
  _atom_site_symmetry_multiplicity
  _atom_site_fract_x
  _atom_site_fract_y
  _atom_site_fract_z
  _atom_site_occupancy
  Zn  Zn1       1.0  0.71171  0.65847  0.52178  1.0000
  Zn  Zn2       1.0  0.28830  0.34153  0.47822  1.0000
  H   H1        1.0  0.83074  0.62684  0.31587  1.0000
  H   H2        1.0  0.16926  0.37317  0.68412  1.0000
  H   H3        1.0  0.01344  0.65124  0.43356  1.0000
  H   H4        1.0  0.98657  0.34877  0.56643  1.0000
  H   H5        1.0  0.71381  0.08301  0.47410  1.0000
  H   H6        1.0  0.28620  0.91700  0.52590  1.0000
  H   H7        1.0  0.30841  0.69231  0.07932  1.0000
  H   H8        1.0  0.69159  0.30769  0.92068  1.0000
  H   H9        1.0  0.39301  0.18909  0.18044  1.0000
  H   H10       1.0  0.60699  0.81091  0.81956  1.0000
  H   H11       1.0  0.00062  0.63496  0.97546  1.0000
  H   H12       1.0  0.99937  0.36504  0.02454  1.0000
  H   H13       1.0  0.29129  0.10112  0.95041  1.0000
  H   H14       1.0  0.70871  0.89888  0.04960  1.0000
  H   H15       1.0  0.03460  0.98195  0.60500  1.0000
  H   H16       1.0  0.96540  0.01805  0.39501  1.0000
  H   H17       1.0  0.14147  0.15312  0.77169  1.0000
  H   H18       1.0  0.85853  0.84688  0.22832  1.0000
  H   H19       1.0  0.88758  0.03202  0.69420  1.0000
  H   H20       1.0  0.11242  0.96798  0.30580  1.0000
  H   H21       1.0  0.75462  0.54421  0.74796  1.0000
  H   H22       1.0  0.24538  0.45578  0.25204  1.0000
  C   C1        1.0  0.56442  0.75541  0.31911  1.0000
  C   C2        1.0  0.43558  0.24460  0.68089  1.0000
  C   C3        1.0  0.51454  0.87576  0.28021  1.0000
  C   C4        1.0  0.48547  0.12424  0.71979  1.0000
  C   C5        1.0  0.60890  0.04210  0.37234  1.0000
  C   C6        1.0  0.39111  0.95790  0.62766  1.0000
  C   C7        1.0  0.66276  0.33165  0.43519  1.0000
  C   C8        1.0  0.33724  0.66835  0.56480  1.0000
  C   C9        1.0  0.56707  0.15465  0.33445  1.0000
  C   C10       1.0  0.43294  0.84535  0.66554  1.0000
  C   C11       1.0  0.37622  0.82199  0.15079  1.0000
  C   C12       1.0  0.62379  0.17801  0.84921  1.0000
  C   C13       1.0  0.42774  0.09994  0.20534  1.0000
  C   C14       1.0  0.57226  0.90006  0.79466  1.0000
  C   C15       1.0  0.32870  0.93286  0.11288  1.0000
  C   C16       1.0  0.67129  0.06714  0.88712  1.0000
  C   C17       1.0  0.17449  0.87504  0.98051  1.0000
  C   C18       1.0  0.82550  0.12496  0.01950  1.0000
  C   C19       1.0  0.01698  0.71711  0.92195  1.0000
  C   C20       1.0  0.98301  0.28288  0.07805  1.0000
  C   C21       1.0  0.17504  0.97650  0.90973  1.0000
  C   C22       1.0  0.82496  0.02350  0.09028  1.0000
  C   C23       1.0  0.02416  0.02831  0.71022  1.0000
  C   C24       1.0  0.97584  0.97169  0.28979  1.0000
  C   C25       1.0  0.02968  0.91945  0.78357  1.0000
  C   C26       1.0  0.97032  0.08055  0.21643  1.0000
  C   C27       1.0  0.87822  0.66556  0.79514  1.0000
  C   C28       1.0  0.12177  0.33444  0.20486  1.0000
  N   N1        1.0  0.88636  0.76239  0.72490  1.0000
  N   N2        1.0  0.11364  0.23761  0.27511  1.0000
  O   O1        1.0  0.63186  0.79943  0.45390  1.0000
  O   O2        1.0  0.36816  0.20057  0.54609  1.0000
  O   O3        1.0  0.54183  0.62765  0.22485  1.0000
  O   O4        1.0  0.45817  0.37236  0.77514  1.0000
  O   O5        1.0  0.82083  0.39627  0.53057  1.0000
  O   O6        1.0  0.17917  0.60374  0.46942  1.0000
  O   O7        1.0  0.56990  0.41291  0.41744  1.0000
  O   O8        1.0  0.43010  0.58709  0.58255  1.0000
  O   O9        1.0  0.91347  0.68835  0.41452  1.0000
  O   O10       1.0  0.08654  0.31166  0.58548  1.0000
