data_image0
_chemical_formula_structural       K2H6C14N4O12
_chemical_formula_sum              "K2 H6 C14 N4 O12"
_cell_length_a       7.00637
_cell_length_b       7.50345
_cell_length_c       10.1027
_cell_angle_alpha    110.352
_cell_angle_beta     108.849
_cell_angle_gamma    93.5962

_space_group_name_H-M_alt    "P 1"
_space_group_IT_number       1

loop_
  _space_group_symop_operation_xyz
  'x, y, z'

loop_
  _atom_site_type_symbol
  _atom_site_label
  _atom_site_symmetry_multiplicity
  _atom_site_fract_x
  _atom_site_fract_y
  _atom_site_fract_z
  _atom_site_occupancy
  K   K1        1.0  0.79614  0.54540  0.09240  1.0000
  K   K2        1.0  0.20385  0.45455  0.90759  1.0000
  H   H1        1.0  0.79440  0.15400  0.54338  1.0000
  H   H2        1.0  0.24998  0.38916  0.54321  1.0000
  H   H3        1.0  0.20560  0.84601  0.45661  1.0000
  H   H4        1.0  0.75003  0.61084  0.45679  1.0000
  H   H5        1.0  0.30855  0.05798  0.11647  1.0000
  H   H6        1.0  0.69144  0.94204  0.88353  1.0000
  C   C1        1.0  0.61766  0.36742  0.73427  1.0000
  C   C2        1.0  0.38235  0.63257  0.26573  1.0000
  C   C3        1.0  0.53116  0.28063  0.56128  1.0000
  C   C4        1.0  0.46884  0.71937  0.43872  1.0000
  C   C5        1.0  0.64438  0.17515  0.48162  1.0000
  C   C6        1.0  0.33809  0.30619  0.48142  1.0000
  C   C7        1.0  0.35563  0.82485  0.51838  1.0000
  C   C8        1.0  0.66192  0.69381  0.51859  1.0000
  C   C9        1.0  0.56063  0.09477  0.32320  1.0000
  C   C10       1.0  0.26317  0.22782  0.32306  1.0000
  C   C11       1.0  0.43936  0.90522  0.67680  1.0000
  C   C12       1.0  0.73683  0.77218  0.67695  1.0000
  C   C13       1.0  0.37027  0.11961  0.23990  1.0000
  C   C14       1.0  0.62972  0.88039  0.76011  1.0000
  N   N1        1.0  0.67477  0.97429  0.24058  1.0000
  N   N2        1.0  0.06637  0.26557  0.24026  1.0000
  N   N3        1.0  0.32522  0.02571  0.75942  1.0000
  N   N4        1.0  0.93364  0.73445  0.75975  1.0000
  O   O1        1.0  0.80005  0.35204  0.79897  1.0000
  O   O2        1.0  0.50009  0.44769  0.79899  1.0000
  O   O3        1.0  0.19996  0.64796  0.20103  1.0000
  O   O4        1.0  0.49991  0.55229  0.20101  1.0000
  O   O5        1.0  0.59380  0.89495  0.10008  1.0000
  O   O6        1.0  0.00700  0.20456  0.09973  1.0000
  O   O7        1.0  0.40617  0.10504  0.89991  1.0000
  O   O8        1.0  0.99301  0.79546  0.90028  1.0000
  O   O9        1.0  0.84576  0.95455  0.31593  1.0000
  O   O10       1.0  0.97057  0.36044  0.31546  1.0000
  O   O11       1.0  0.15424  0.04545  0.68405  1.0000
  O   O12       1.0  0.02944  0.63957  0.68455  1.0000
