data_image0
_chemical_formula_structural       Cd2H12C16I4Br4N8
_chemical_formula_sum              "Cd2 H12 C16 I4 Br4 N8"
_cell_length_a       4.16492
_cell_length_b       11.8765
_cell_length_c       15.0868
_cell_angle_alpha    90
_cell_angle_beta     89.9993
_cell_angle_gamma    86.1552

_space_group_name_H-M_alt    "P 1"
_space_group_IT_number       1

loop_
  _space_group_symop_operation_xyz
  'x, y, z'

loop_
  _atom_site_type_symbol
  _atom_site_label
  _atom_site_symmetry_multiplicity
  _atom_site_fract_x
  _atom_site_fract_y
  _atom_site_fract_z
  _atom_site_occupancy
  Cd  Cd1       1.0  0.00003  0.49998  0.00000  1.0000
  Cd  Cd2       1.0  0.99995  0.00001  0.50000  1.0000
  H   H1        1.0  0.20560  0.70190  0.14262  1.0000
  H   H2        1.0  0.79440  0.79810  0.64262  1.0000
  H   H3        1.0  0.79443  0.29807  0.85739  1.0000
  H   H4        1.0  0.20553  0.20193  0.35738  1.0000
  H   H5        1.0  0.20184  0.74873  0.30730  1.0000
  H   H6        1.0  0.79822  0.75128  0.80730  1.0000
  H   H7        1.0  0.79813  0.25126  0.69269  1.0000
  H   H8        1.0  0.20182  0.24874  0.19269  1.0000
  H   H9        1.0  0.75460  0.40767  0.19635  1.0000
  H   H10       1.0  0.24532  0.09235  0.69634  1.0000
  H   H11       1.0  0.24541  0.59231  0.80367  1.0000
  H   H12       1.0  0.75464  0.90768  0.30365  1.0000
  C   C1        1.0  0.10385  0.64705  0.19175  1.0000
  C   C2        1.0  0.89614  0.85295  0.69175  1.0000
  C   C3        1.0  0.89616  0.35293  0.80826  1.0000
  C   C4        1.0  0.10382  0.14708  0.30824  1.0000
  C   C5        1.0  0.10082  0.67243  0.28195  1.0000
  C   C6        1.0  0.89919  0.82757  0.78195  1.0000
  C   C7        1.0  0.89917  0.32756  0.71805  1.0000
  C   C8        1.0  0.10082  0.17244  0.21804  1.0000
  C   C9        1.0  0.85940  0.51122  0.31179  1.0000
  C   C10       1.0  0.14060  0.98878  0.81178  1.0000
  C   C11       1.0  0.14062  0.48877  0.68822  1.0000
  C   C12       1.0  0.85944  0.01124  0.18821  1.0000
  C   C13       1.0  0.85741  0.48362  0.22139  1.0000
  C   C14       1.0  0.14254  0.01639  0.72138  1.0000
  C   C15       1.0  0.14261  0.51635  0.77862  1.0000
  C   C16       1.0  0.85744  0.98364  0.27861  1.0000
  I   I1        1.0  0.47499  0.67276  0.96780  1.0000
  I   I2        1.0  0.52500  0.82724  0.46780  1.0000
  I   I3        1.0  0.52507  0.32721  0.03221  1.0000
  I   I4        1.0  0.47492  0.17279  0.53220  1.0000
  Br  Br1       1.0  0.68946  0.41000  0.39485  1.0000
  Br  Br2       1.0  0.31056  0.09001  0.89484  1.0000
  Br  Br3       1.0  0.31054  0.58999  0.60517  1.0000
  Br  Br4       1.0  0.68950  0.91000  0.10515  1.0000
  N   N1        1.0  0.98228  0.55196  0.16202  1.0000
  N   N2        1.0  0.01766  0.94805  0.66202  1.0000
  N   N3        1.0  0.01774  0.44801  0.83799  1.0000
  N   N4        1.0  0.98228  0.05198  0.33797  1.0000
  N   N5        1.0  0.97949  0.60398  0.34233  1.0000
  N   N6        1.0  0.02054  0.89603  0.84232  1.0000
  N   N7        1.0  0.02051  0.39602  0.65768  1.0000
  N   N8        1.0  0.97951  0.10398  0.15767  1.0000
