data_image0
_chemical_formula_structural       Cu4H16C12N4Cl4
_chemical_formula_sum              "Cu4 H16 C12 N4 Cl4"
_cell_length_a       3.6914
_cell_length_b       7.95451
_cell_length_c       15.072
_cell_angle_alpha    83.0736
_cell_angle_beta     88.7474
_cell_angle_gamma    79.526

_space_group_name_H-M_alt    "P 1"
_space_group_IT_number       1

loop_
  _space_group_symop_operation_xyz
  'x, y, z'

loop_
  _atom_site_type_symbol
  _atom_site_label
  _atom_site_symmetry_multiplicity
  _atom_site_fract_x
  _atom_site_fract_y
  _atom_site_fract_z
  _atom_site_occupancy
  Cu  Cu1       1.0  0.24324  0.61601  0.56479  1.0000
  Cu  Cu2       1.0  0.75678  0.38400  0.43520  1.0000
  Cu  Cu3       1.0  0.30635  0.82563  0.97902  1.0000
  Cu  Cu4       1.0  0.69365  0.17437  0.02098  1.0000
  H   H1        1.0  0.98059  0.99879  0.81023  1.0000
  H   H2        1.0  0.01935  0.00121  0.18977  1.0000
  H   H3        1.0  0.61399  0.51803  0.89102  1.0000
  H   H4        1.0  0.38601  0.48197  0.10898  1.0000
  H   H5        1.0  0.72148  0.88782  0.59545  1.0000
  H   H6        1.0  0.27853  0.11218  0.40456  1.0000
  H   H7        1.0  0.07798  0.00956  0.59010  1.0000
  H   H8        1.0  0.92204  0.99044  0.40991  1.0000
  H   H9        1.0  0.70390  0.05891  0.66335  1.0000
  H   H10       1.0  0.29611  0.94109  0.33665  1.0000
  H   H11       1.0  0.42384  0.31015  0.71654  1.0000
  H   H12       1.0  0.57619  0.68986  0.28345  1.0000
  H   H13       1.0  0.79495  0.31766  0.78917  1.0000
  H   H14       1.0  0.20507  0.68235  0.21082  1.0000
  H   H15       1.0  0.80301  0.39908  0.67262  1.0000
  H   H16       1.0  0.19698  0.60093  0.32738  1.0000
  C   C1        1.0  0.08605  0.82814  0.70757  1.0000
  C   C2        1.0  0.91393  0.17187  0.29244  1.0000
  C   C3        1.0  0.11143  0.87249  0.79342  1.0000
  C   C4        1.0  0.88855  0.12749  0.20658  1.0000
  C   C5        1.0  0.46046  0.60726  0.83862  1.0000
  C   C6        1.0  0.53956  0.39272  0.16138  1.0000
  C   C7        1.0  0.44120  0.55928  0.75326  1.0000
  C   C8        1.0  0.55879  0.44072  0.24673  1.0000
  C   C9        1.0  0.88459  0.95265  0.63588  1.0000
  C   C10       1.0  0.11542  0.04734  0.36412  1.0000
  C   C11       1.0  0.62838  0.38664  0.73230  1.0000
  C   C12       1.0  0.37163  0.61336  0.26769  1.0000
  N   N1        1.0  0.25250  0.67007  0.68678  1.0000
  N   N2        1.0  0.74750  0.32993  0.31322  1.0000
  N   N3        1.0  0.29807  0.76385  0.85979  1.0000
  N   N4        1.0  0.70190  0.23614  0.14020  1.0000
  Cl  Cl1       1.0  0.28532  0.31362  0.52970  1.0000
  Cl  Cl2       1.0  0.71471  0.68638  0.47029  1.0000
  Cl  Cl3       1.0  0.79738  0.81553  0.06837  1.0000
  Cl  Cl4       1.0  0.20262  0.18447  0.93163  1.0000
