data_image0
_chemical_formula_structural       CoH24C26S2N14
_chemical_formula_sum              "Co1 H24 C26 S2 N14"
_cell_length_a       8.45754
_cell_length_b       8.78848
_cell_length_c       9.58786
_cell_angle_alpha    96.4411
_cell_angle_beta     98.5889
_cell_angle_gamma    96.9487

_space_group_name_H-M_alt    "P 1"
_space_group_IT_number       1

loop_
  _space_group_symop_operation_xyz
  'x, y, z'

loop_
  _atom_site_type_symbol
  _atom_site_label
  _atom_site_symmetry_multiplicity
  _atom_site_fract_x
  _atom_site_fract_y
  _atom_site_fract_z
  _atom_site_occupancy
  Co  Co1       1.0  1.00000  0.50000  1.00000  1.0000
  H   H1        1.0  0.64208  0.06226  0.23792  1.0000
  H   H2        1.0  0.35793  0.93774  0.76209  1.0000
  H   H3        1.0  0.83860  0.25814  0.40689  1.0000
  H   H4        1.0  0.16141  0.74186  0.59312  1.0000
  H   H5        1.0  0.94592  0.19284  0.64732  1.0000
  H   H6        1.0  0.05409  0.80716  0.35268  1.0000
  H   H7        1.0  0.84781  0.94372  0.71994  1.0000
  H   H8        1.0  0.15220  0.05628  0.28007  1.0000
  H   H9        1.0  0.53995  0.73623  0.64705  1.0000
  H   H10       1.0  0.46005  0.26377  0.35295  1.0000
  H   H11       1.0  0.55919  0.62678  0.48556  1.0000
  H   H12       1.0  0.44081  0.37323  0.51444  1.0000
  H   H13       1.0  0.42255  0.71351  0.31633  1.0000
  H   H14       1.0  0.57745  0.28649  0.68367  1.0000
  H   H15       1.0  0.46280  0.83804  0.18942  1.0000
  H   H16       1.0  0.53720  0.16196  0.81058  1.0000
  H   H17       1.0  0.03526  0.43939  0.65982  1.0000
  H   H18       1.0  0.96474  0.56061  0.34018  1.0000
  H   H19       1.0  0.72404  0.68956  0.86805  1.0000
  H   H20       1.0  0.27596  0.31043  0.13195  1.0000
  H   H21       1.0  0.66040  0.31865  0.11042  1.0000
  H   H22       1.0  0.33960  0.68135  0.88958  1.0000
  H   H23       1.0  0.80133  0.79819  0.13730  1.0000
  H   H24       1.0  0.19866  0.20181  0.86269  1.0000
  C   C1        1.0  0.68884  0.86074  0.52134  1.0000
  C   C2        1.0  0.31116  0.13926  0.47865  1.0000
  C   C3        1.0  0.63184  0.89426  0.38431  1.0000
  C   C4        1.0  0.36816  0.10575  0.61569  1.0000
  C   C5        1.0  0.68582  0.03810  0.34512  1.0000
  C   C6        1.0  0.31418  0.96190  0.65488  1.0000
  C   C7        1.0  0.79722  0.14684  0.43883  1.0000
  C   C8        1.0  0.20278  0.85316  0.56116  1.0000
  C   C9        1.0  0.85696  0.11103  0.57309  1.0000
  C   C10       1.0  0.14304  0.88897  0.42690  1.0000
  C   C11       1.0  0.80238  0.96939  0.61395  1.0000
  C   C12       1.0  0.19762  0.03061  0.38605  1.0000
  C   C13       1.0  0.62436  0.71286  0.57317  1.0000
  C   C14       1.0  0.37564  0.28713  0.42683  1.0000
  C   C15       1.0  0.51977  0.77806  0.27414  1.0000
  C   C16       1.0  0.48023  0.22195  0.72586  1.0000
  C   C17       1.0  0.94036  0.50645  0.68116  1.0000
  C   C18       1.0  0.05964  0.49355  0.31884  1.0000
  C   C19       1.0  0.78477  0.63364  0.78961  1.0000
  C   C20       1.0  0.21523  0.36636  0.21039  1.0000
  C   C21       1.0  0.66451  0.44307  0.13406  1.0000
  C   C22       1.0  0.33548  0.55694  0.86594  1.0000
  C   C23       1.0  0.73964  0.68478  0.14673  1.0000
  C   C24       1.0  0.26036  0.31522  0.85327  1.0000
  C   C25       1.0  0.83279  0.17072  0.95989  1.0000
  C   C26       1.0  0.16720  0.82927  0.04011  1.0000
  S   S1        1.0  0.71821  0.01109  0.96835  1.0000
  S   S2        1.0  0.28179  0.98891  0.03165  1.0000
  N   N1        1.0  0.74972  0.63923  0.64934  1.0000
  N   N2        1.0  0.25028  0.36077  0.35066  1.0000
  N   N3        1.0  0.84787  0.55914  0.57810  1.0000
  N   N4        1.0  0.15213  0.44086  0.42190  1.0000
  N   N5        1.0  0.90481  0.54889  0.81370  1.0000
  N   N6        1.0  0.09518  0.45111  0.18630  1.0000
  N   N7        1.0  0.60776  0.66154  0.20944  1.0000
  N   N8        1.0  0.39224  0.33846  0.79056  1.0000
  N   N9        1.0  0.55868  0.50732  0.20324  1.0000
  N   N10       1.0  0.44131  0.49268  0.79676  1.0000
  N   N11       1.0  0.77809  0.54801  0.09698  1.0000
  N   N12       1.0  0.22191  0.45199  0.90302  1.0000
  N   N13       1.0  0.90913  0.29129  0.95299  1.0000
  N   N14       1.0  0.09088  0.70871  0.04701  1.0000
