data_image0
_chemical_formula_structural       Li2Tb2H16C32O16
_chemical_formula_sum              "Li2 Tb2 H16 C32 O16"
_cell_length_a       6.72426
_cell_length_b       9.80953
_cell_length_c       14.0425
_cell_angle_alpha    106.302
_cell_angle_beta     97.9685
_cell_angle_gamma    106.718

_space_group_name_H-M_alt    "P 1"
_space_group_IT_number       1

loop_
  _space_group_symop_operation_xyz
  'x, y, z'

loop_
  _atom_site_type_symbol
  _atom_site_label
  _atom_site_symmetry_multiplicity
  _atom_site_fract_x
  _atom_site_fract_y
  _atom_site_fract_z
  _atom_site_occupancy
  Li  Li1       1.0  0.84082  0.09022  0.18113  1.0000
  Li  Li2       1.0  0.15918  0.90978  0.81887  1.0000
  Tb  Tb1       1.0  0.33307  0.08257  0.16543  1.0000
  Tb  Tb2       1.0  0.66693  0.91743  0.83457  1.0000
  H   H1        1.0  0.25688  0.47281  0.20633  1.0000
  H   H2        1.0  0.44985  0.73327  0.20619  1.0000
  H   H3        1.0  0.74311  0.52719  0.79367  1.0000
  H   H4        1.0  0.55015  0.26673  0.79381  1.0000
  H   H5        1.0  0.08268  0.31059  0.87782  1.0000
  H   H6        1.0  0.29463  0.56645  0.87773  1.0000
  H   H7        1.0  0.91731  0.68941  0.12218  1.0000
  H   H8        1.0  0.70536  0.43355  0.12227  1.0000
  H   H9        1.0  0.63920  0.52212  0.48698  1.0000
  H   H10       1.0  0.34839  0.96557  0.48749  1.0000
  H   H11       1.0  0.36081  0.47787  0.51302  1.0000
  H   H12       1.0  0.65161  0.03442  0.51251  1.0000
  H   H13       1.0  0.07520  0.32458  0.35476  1.0000
  H   H14       1.0  0.77965  0.02934  0.35445  1.0000
  H   H15       1.0  0.92482  0.67542  0.64524  1.0000
  H   H16       1.0  0.22033  0.97065  0.64555  1.0000
  C   C1        1.0  0.26320  0.49527  0.13483  1.0000
  C   C2        1.0  0.37184  0.63921  0.13476  1.0000
  C   C3        1.0  0.73680  0.50474  0.86517  1.0000
  C   C4        1.0  0.62815  0.36080  0.86524  1.0000
  C   C5        1.0  0.03475  0.22301  0.03958  1.0000
  C   C6        1.0  0.50453  0.81601  0.03929  1.0000
  C   C7        1.0  0.96526  0.77700  0.96042  1.0000
  C   C8        1.0  0.49545  0.18399  0.96071  1.0000
  C   C9        1.0  0.16645  0.40326  0.94914  1.0000
  C   C10       1.0  0.28239  0.54525  0.94909  1.0000
  C   C11       1.0  0.83355  0.59675  0.05086  1.0000
  C   C12       1.0  0.71760  0.45475  0.05090  1.0000
  C   C13       1.0  0.15777  0.37717  0.04180  1.0000
  C   C14       1.0  0.38394  0.66411  0.04168  1.0000
  C   C15       1.0  0.84223  0.62283  0.95820  1.0000
  C   C16       1.0  0.61605  0.33589  0.95832  1.0000
  C   C17       1.0  0.83811  0.41301  0.41157  1.0000
  C   C18       1.0  0.07387  0.99846  0.41161  1.0000
  C   C19       1.0  0.16190  0.58698  0.58843  1.0000
  C   C20       1.0  0.92613  0.00154  0.58839  1.0000
  C   C21       1.0  0.66310  0.31488  0.31937  1.0000
  C   C22       1.0  0.15680  0.00422  0.31941  1.0000
  C   C23       1.0  0.33692  0.68512  0.68063  1.0000
  C   C24       1.0  0.84320  0.99578  0.68059  1.0000
  C   C25       1.0  0.79728  0.51269  0.49344  1.0000
  C   C26       1.0  0.19652  0.98118  0.49369  1.0000
  C   C27       1.0  0.20274  0.48731  0.50657  1.0000
  C   C28       1.0  0.80347  0.01882  0.50631  1.0000
  C   C29       1.0  0.04239  0.40116  0.41834  1.0000
  C   C30       1.0  0.87606  0.01669  0.41817  1.0000
  C   C31       1.0  0.95763  0.59884  0.58166  1.0000
  C   C32       1.0  0.12394  0.98330  0.58183  1.0000
  O   O1        1.0  0.06871  0.18732  0.12021  1.0000
  O   O2        1.0  0.55201  0.93233  0.12006  1.0000
  O   O3        1.0  0.93130  0.81268  0.87979  1.0000
  O   O4        1.0  0.44797  0.06767  0.87994  1.0000
  O   O5        1.0  0.89917  0.13286  0.95804  1.0000
  O   O6        1.0  0.55750  0.82456  0.95754  1.0000
  O   O7        1.0  0.10083  0.86714  0.04196  1.0000
  O   O8        1.0  0.44250  0.17544  0.04246  1.0000
  O   O9        1.0  0.70389  0.21908  0.24765  1.0000
  O   O10       1.0  0.04407  0.02767  0.24746  1.0000
  O   O11       1.0  0.29612  0.78092  0.75235  1.0000
  O   O12       1.0  0.95592  0.97233  0.75254  1.0000
  O   O13       1.0  0.47429  0.31914  0.31108  1.0000
  O   O14       1.0  0.33762  0.99208  0.31129  1.0000
  O   O15       1.0  0.52572  0.68086  0.68892  1.0000
  O   O16       1.0  0.66239  0.00793  0.68871  1.0000
