data_image0
_chemical_formula_structural       Ni2H28C28N16O16
_chemical_formula_sum              "Ni2 H28 C28 N16 O16"
_cell_length_a       7.11055
_cell_length_b       8.46202
_cell_length_c       13.8481
_cell_angle_alpha    90.0006
_cell_angle_beta     97.6062
_cell_angle_gamma    90.0003

_space_group_name_H-M_alt    "P 1"
_space_group_IT_number       1

loop_
  _space_group_symop_operation_xyz
  'x, y, z'

loop_
  _atom_site_type_symbol
  _atom_site_label
  _atom_site_symmetry_multiplicity
  _atom_site_fract_x
  _atom_site_fract_y
  _atom_site_fract_z
  _atom_site_occupancy
  Ni  Ni1       1.0  1.00000  0.00000  1.00000  1.0000
  Ni  Ni2       1.0  0.50000  0.50000  0.50000  1.0000
  H   H1        1.0  0.37904  0.45848  0.18103  1.0000
  H   H2        1.0  0.12096  0.95848  0.31898  1.0000
  H   H3        1.0  0.62097  0.54152  0.81897  1.0000
  H   H4        1.0  0.87903  0.04152  0.68102  1.0000
  H   H5        1.0  0.20357  0.18664  0.18501  1.0000
  H   H6        1.0  0.29642  0.68665  0.31498  1.0000
  H   H7        1.0  0.79644  0.81335  0.81498  1.0000
  H   H8        1.0  0.70357  0.31336  0.68502  1.0000
  H   H9        1.0  0.32127  0.73502  0.87308  1.0000
  H   H10       1.0  0.17874  0.23502  0.62693  1.0000
  H   H11       1.0  0.67873  0.26498  0.12692  1.0000
  H   H12       1.0  0.82125  0.76499  0.37307  1.0000
  H   H13       1.0  0.14455  0.68651  0.72786  1.0000
  H   H14       1.0  0.35546  0.18650  0.77215  1.0000
  H   H15       1.0  0.85545  0.31349  0.27214  1.0000
  H   H16       1.0  0.64453  0.81350  0.22785  1.0000
  H   H17       1.0  0.02001  0.50759  0.70337  1.0000
  H   H18       1.0  0.47999  0.00759  0.79664  1.0000
  H   H19       1.0  0.97999  0.49241  0.29663  1.0000
  H   H20       1.0  0.52001  0.99241  0.20336  1.0000
  H   H21       1.0  0.13896  0.82813  0.14091  1.0000
  H   H22       1.0  0.36103  0.32813  0.35909  1.0000
  H   H23       1.0  0.86103  0.17187  0.85909  1.0000
  H   H24       1.0  0.63896  0.67187  0.64091  1.0000
  H   H25       1.0  0.28429  0.81846  0.06564  1.0000
  H   H26       1.0  0.21571  0.31846  0.43436  1.0000
  H   H27       1.0  0.71571  0.18154  0.93436  1.0000
  H   H28       1.0  0.78428  0.68154  0.56564  1.0000
  C   C1        1.0  0.20385  0.26153  0.12155  1.0000
  C   C2        1.0  0.29615  0.76153  0.37845  1.0000
  C   C3        1.0  0.79616  0.73847  0.87845  1.0000
  C   C4        1.0  0.70385  0.23848  0.62155  1.0000
  C   C5        1.0  0.25883  0.46500  0.03063  1.0000
  C   C6        1.0  0.24117  0.96500  0.46937  1.0000
  C   C7        1.0  0.74117  0.53500  0.96937  1.0000
  C   C8        1.0  0.75883  0.03500  0.53063  1.0000
  C   C9        1.0  0.15148  0.35091  0.97399  1.0000
  C   C10       1.0  0.34851  0.85091  0.52602  1.0000
  C   C11       1.0  0.84851  0.64908  0.02601  1.0000
  C   C12       1.0  0.65149  0.14909  0.47399  1.0000
  C   C13       1.0  0.10009  0.37979  0.87240  1.0000
  C   C14       1.0  0.39991  0.87979  0.62760  1.0000
  C   C15       1.0  0.89991  0.62020  0.12760  1.0000
  C   C16       1.0  0.60010  0.12020  0.37241  1.0000
  C   C17       1.0  0.27621  0.62669  0.90543  1.0000
  C   C18       1.0  0.22380  0.12669  0.59458  1.0000
  C   C19       1.0  0.72379  0.37331  0.09458  1.0000
  C   C20       1.0  0.77621  0.87331  0.40542  1.0000
  C   C21       1.0  0.15370  0.55805  0.73825  1.0000
  C   C22       1.0  0.34631  0.05805  0.76176  1.0000
  C   C23       1.0  0.84631  0.44195  0.26175  1.0000
  C   C24       1.0  0.65369  0.94195  0.23824  1.0000
  C   C25       1.0  0.32123  0.49416  0.68972  1.0000
  C   C26       1.0  0.17877  0.99417  0.81027  1.0000
  C   C27       1.0  0.67878  0.50583  0.31028  1.0000
  C   C28       1.0  0.82122  0.00583  0.18972  1.0000
  N   N1        1.0  0.11711  0.22463  0.03334  1.0000
  N   N2        1.0  0.38289  0.72462  0.46666  1.0000
  N   N3        1.0  0.88289  0.77537  0.96666  1.0000
  N   N4        1.0  0.61711  0.27538  0.53334  1.0000
  N   N5        1.0  0.28942  0.40610  0.12338  1.0000
  N   N6        1.0  0.21059  0.90609  0.37662  1.0000
  N   N7        1.0  0.71059  0.59390  0.87662  1.0000
  N   N8        1.0  0.78941  0.09391  0.62338  1.0000
  N   N9        1.0  0.31914  0.60574  0.99968  1.0000
  N   N10       1.0  0.18087  0.10574  0.50033  1.0000
  N   N11       1.0  0.68086  0.39426  0.00032  1.0000
  N   N12       1.0  0.81913  0.89426  0.49967  1.0000
  N   N13       1.0  0.17501  0.52419  0.84273  1.0000
  N   N14       1.0  0.32500  0.02419  0.65727  1.0000
  N   N15       1.0  0.82499  0.47581  0.15727  1.0000
  N   N16       1.0  0.67500  0.97581  0.34273  1.0000
  O   O1        1.0  0.00111  0.29632  0.81033  1.0000
  O   O2        1.0  0.49889  0.79632  0.68967  1.0000
  O   O3        1.0  0.99889  0.70368  0.18967  1.0000
  O   O4        1.0  0.50111  0.20368  0.31033  1.0000
  O   O5        1.0  0.46710  0.44363  0.74275  1.0000
  O   O6        1.0  0.03290  0.94363  0.75725  1.0000
  O   O7        1.0  0.53290  0.55637  0.25725  1.0000
  O   O8        1.0  0.96710  0.05636  0.24275  1.0000
  O   O9        1.0  0.29286  0.49803  0.59727  1.0000
  O   O10       1.0  0.20714  0.99803  0.90273  1.0000
  O   O11       1.0  0.70715  0.50197  0.40273  1.0000
  O   O12       1.0  0.79286  0.00197  0.09726  1.0000
  O   O13       1.0  0.21668  0.89589  0.10179  1.0000
  O   O14       1.0  0.28331  0.39589  0.39821  1.0000
  O   O15       1.0  0.78331  0.10411  0.89821  1.0000
  O   O16       1.0  0.71668  0.60411  0.60179  1.0000
