data_image0
_chemical_formula_structural       CuH20C14N14O6
_chemical_formula_sum              "Cu1 H20 C14 N14 O6"
_cell_length_a       7.45444
_cell_length_b       8.62125
_cell_length_c       9.21843
_cell_angle_alpha    79.2854
_cell_angle_beta     75.8603
_cell_angle_gamma    65.6425

_space_group_name_H-M_alt    "P 1"
_space_group_IT_number       1

loop_
  _space_group_symop_operation_xyz
  'x, y, z'

loop_
  _atom_site_type_symbol
  _atom_site_label
  _atom_site_symmetry_multiplicity
  _atom_site_fract_x
  _atom_site_fract_y
  _atom_site_fract_z
  _atom_site_occupancy
  Cu  Cu1       1.0  0.63606  0.28541  0.97140  1.0000
  H   H1        1.0  0.46759  0.22126  0.33947  1.0000
  H   H2        1.0  0.54129  0.94877  0.97805  1.0000
  H   H3        1.0  0.13352  0.99378  0.45525  1.0000
  H   H4        1.0  0.25137  0.09322  0.53109  1.0000
  H   H5        1.0  0.46275  0.71264  0.47725  1.0000
  H   H6        1.0  0.51118  0.82605  0.59580  1.0000
  H   H7        1.0  0.14315  0.73113  0.64672  1.0000
  H   H8        1.0  0.34165  0.64394  0.74848  1.0000
  H   H9        1.0  0.83750  0.98244  0.74397  1.0000
  H   H10       1.0  0.09710  0.13441  0.02167  1.0000
  H   H11       1.0  0.80578  0.34813  0.60392  1.0000
  H   H12       1.0  0.72958  0.62405  0.96387  1.0000
  H   H13       1.0  0.13662  0.57763  0.48646  1.0000
  H   H14       1.0  0.01979  0.47633  0.41186  1.0000
  H   H15       1.0  0.75847  0.74240  0.34625  1.0000
  H   H16       1.0  0.80660  0.85738  0.46344  1.0000
  H   H17       1.0  0.92486  0.92527  0.19150  1.0000
  H   H18       1.0  0.12419  0.84115  0.29230  1.0000
  H   H19       1.0  0.43095  0.58986  0.19686  1.0000
  H   H20       1.0  0.17573  0.43269  0.91976  1.0000
  C   C1        1.0  0.46742  0.13282  0.26953  1.0000
  C   C2        1.0  0.50567  0.98855  0.08995  1.0000
  C   C3        1.0  0.27909  0.98488  0.47069  1.0000
  C   C4        1.0  0.39243  0.81444  0.55340  1.0000
  C   C5        1.0  0.25456  0.75926  0.68381  1.0000
  C   C6        1.0  0.94276  0.98950  0.80386  1.0000
  C   C7        1.0  0.08151  0.06560  0.94142  1.0000
  C   C8        1.0  0.80439  0.43758  0.67362  1.0000
  C   C9        1.0  0.76514  0.58339  0.85231  1.0000
  C   C10       1.0  0.99128  0.58556  0.47137  1.0000
  C   C11       1.0  0.87729  0.75515  0.38769  1.0000
  C   C12       1.0  0.01357  0.81092  0.25624  1.0000
  C   C13       1.0  0.32664  0.58180  0.13669  1.0000
  C   C14       1.0  0.18981  0.50268  0.99984  1.0000
  N   N1        1.0  0.54268  0.11977  0.12224  1.0000
  N   N2        1.0  0.38939  0.01370  0.32134  1.0000
  N   N3        1.0  0.41239  0.92041  0.20903  1.0000
  N   N4        1.0  0.13950  0.89209  0.78558  1.0000
  N   N5        1.0  0.23061  0.93825  0.87191  1.0000
  N   N6        1.0  0.90163  0.10062  0.90309  1.0000
  N   N7        1.0  0.72950  0.45103  0.82088  1.0000
  N   N8        1.0  0.88079  0.55761  0.62097  1.0000
  N   N9        1.0  0.85718  0.65187  0.73270  1.0000
  N   N10       1.0  0.12957  0.67776  0.15492  1.0000
  N   N11       1.0  0.03964  0.62979  0.06900  1.0000
  N   N12       1.0  0.36923  0.46964  0.03812  1.0000
  N   N13       1.0  0.79169  0.36034  0.28641  1.0000
  N   N14       1.0  0.46884  0.20457  0.66460  1.0000
  O   O1        1.0  0.80203  0.33548  0.15193  1.0000
  O   O2        1.0  0.94096  0.27756  0.34998  1.0000
  O   O3        1.0  0.63291  0.46795  0.35509  1.0000
  O   O4        1.0  0.47044  0.22665  0.79729  1.0000
  O   O5        1.0  0.31270  0.28864  0.60908  1.0000
  O   O6        1.0  0.62256  0.09831  0.59015  1.0000
