data_image0
_chemical_formula_structural       K4Ti2H24C12N2O23
_chemical_formula_sum              "K4 Ti2 H24 C12 N2 O23"
_cell_length_a       7.7124
_cell_length_b       9.81394
_cell_length_c       10.7091
_cell_angle_alpha    65.948
_cell_angle_beta     77.5742
_cell_angle_gamma    66.6483

_space_group_name_H-M_alt    "P 1"
_space_group_IT_number       1

loop_
  _space_group_symop_operation_xyz
  'x, y, z'

loop_
  _atom_site_type_symbol
  _atom_site_label
  _atom_site_symmetry_multiplicity
  _atom_site_fract_x
  _atom_site_fract_y
  _atom_site_fract_z
  _atom_site_occupancy
  K   K1        1.0  0.27261  0.02589  0.70151  1.0000
  K   K2        1.0  0.72739  0.97411  0.29850  1.0000
  K   K3        1.0  0.78318  0.05529  0.63496  1.0000
  K   K4        1.0  0.21682  0.94471  0.36504  1.0000
  Ti  Ti1       1.0  0.04831  0.41555  0.86592  1.0000
  Ti  Ti2       1.0  0.95169  0.58445  0.13408  1.0000
  H   H1        1.0  0.43935  0.63061  0.76881  1.0000
  H   H2        1.0  0.56065  0.36939  0.23119  1.0000
  H   H3        1.0  0.26048  0.62628  0.90654  1.0000
  H   H4        1.0  0.73952  0.37371  0.09346  1.0000
  H   H5        1.0  0.36674  0.38843  0.04955  1.0000
  H   H6        1.0  0.63326  0.61157  0.95045  1.0000
  H   H7        1.0  0.58050  0.28799  0.97161  1.0000
  H   H8        1.0  0.41950  0.71200  0.02839  1.0000
  H   H9        1.0  0.59010  0.27672  0.76953  1.0000
  H   H10       1.0  0.40991  0.72328  0.23047  1.0000
  H   H11       1.0  0.51327  0.47270  0.65293  1.0000
  H   H12       1.0  0.48673  0.52730  0.34707  1.0000
  H   H13       1.0  0.90518  0.13453  0.87888  1.0000
  H   H14       1.0  0.09482  0.86547  0.12112  1.0000
  H   H15       1.0  0.87962  0.96643  0.92326  1.0000
  H   H16       1.0  0.12038  0.03357  0.07674  1.0000
  H   H17       1.0  0.93334  0.36003  0.61499  1.0000
  H   H18       1.0  0.06665  0.63998  0.38501  1.0000
  H   H19       1.0  0.94632  0.34783  0.47130  1.0000
  H   H20       1.0  0.05368  0.65217  0.52871  1.0000
  H   H21       1.0  0.62296  0.77266  0.55307  1.0000
  H   H22       1.0  0.37704  0.22734  0.44693  1.0000
  H   H23       1.0  0.75859  0.75050  0.65460  1.0000
  H   H24       1.0  0.24141  0.24950  0.34539  1.0000
  C   C1        1.0  0.15268  0.70440  0.71494  1.0000
  C   C2        1.0  0.84731  0.29560  0.28506  1.0000
  C   C3        1.0  0.31096  0.59967  0.81173  1.0000
  C   C4        1.0  0.68904  0.40033  0.18827  1.0000
  C   C5        1.0  0.36371  0.17948  0.03931  1.0000
  C   C6        1.0  0.63629  0.82052  0.96069  1.0000
  C   C7        1.0  0.42541  0.32426  0.97760  1.0000
  C   C8        1.0  0.57459  0.67574  0.02240  1.0000
  C   C9        1.0  0.35793  0.33233  0.65745  1.0000
  C   C10       1.0  0.64207  0.66767  0.34255  1.0000
  C   C11       1.0  0.46234  0.37891  0.72979  1.0000
  C   C12       1.0  0.53767  0.62109  0.27021  1.0000
  N   N1        1.0  0.34645  0.43041  0.84294  1.0000
  N   N2        1.0  0.65355  0.56959  0.15706  1.0000
  O   O1        1.0  0.03096  0.64244  0.71620  1.0000
  O   O2        1.0  0.96904  0.35756  0.28380  1.0000
  O   O3        1.0  0.14148  0.84413  0.64178  1.0000
  O   O4        1.0  0.85852  0.15587  0.35823  1.0000
  O   O5        1.0  0.21473  0.19294  0.99046  1.0000
  O   O6        1.0  0.78527  0.80706  0.00954  1.0000
  O   O7        1.0  0.44847  0.06074  0.13539  1.0000
  O   O8        1.0  0.55153  0.93926  0.86461  1.0000
  O   O9        1.0  0.18708  0.33933  0.70205  1.0000
  O   O10       1.0  0.81292  0.66067  0.29795  1.0000
  O   O11       1.0  0.44458  0.28580  0.56034  1.0000
  O   O12       1.0  0.55542  0.71420  0.43966  1.0000
  O   O13       1.0  0.87071  0.30881  0.91000  1.0000
  O   O14       1.0  0.12929  0.69119  0.09000  1.0000
  O   O15       1.0  0.80862  0.46762  0.80263  1.0000
  O   O16       1.0  0.19139  0.53238  0.19736  1.0000
  O   O17       1.0  1.00000  0.50000  0.00000  1.0000
  O   O18       1.0  0.93551  0.04230  0.85148  1.0000
  O   O19       1.0  0.06449  0.95770  0.14852  1.0000
  O   O20       1.0  0.91371  0.29984  0.56901  1.0000
  O   O21       1.0  0.08628  0.70016  0.43099  1.0000
  O   O22       1.0  0.64640  0.82762  0.60429  1.0000
  O   O23       1.0  0.35360  0.17238  0.39571  1.0000
