data_image0
_chemical_formula_structural       AgBiH16C24I4N4
_chemical_formula_sum              "Ag1 Bi1 H16 C24 I4 N4"
_cell_length_a       7.6939
_cell_length_b       9.92003
_cell_length_c       9.91991
_cell_angle_alpha    68.2153
_cell_angle_beta     78.1819
_cell_angle_gamma    78.182

_space_group_name_H-M_alt    "P 1"
_space_group_IT_number       1

loop_
  _space_group_symop_operation_xyz
  'x, y, z'

loop_
  _atom_site_type_symbol
  _atom_site_label
  _atom_site_symmetry_multiplicity
  _atom_site_fract_x
  _atom_site_fract_y
  _atom_site_fract_z
  _atom_site_occupancy
  Ag  Ag1       1.0  0.50000  0.34174  0.65827  1.0000
  Bi  Bi1       1.0  0.00001  0.48287  0.51713  1.0000
  H   H1        1.0  0.32021  0.41698  0.25147  1.0000
  H   H2        1.0  0.67980  0.74853  0.58302  1.0000
  H   H3        1.0  0.44155  0.52811  0.98427  1.0000
  H   H4        1.0  0.55845  0.01572  0.47189  1.0000
  H   H5        1.0  0.31838  0.78594  0.84509  1.0000
  H   H6        1.0  0.68162  0.15490  0.21406  1.0000
  H   H7        1.0  0.11655  0.01857  0.84752  1.0000
  H   H8        1.0  0.88345  0.15247  0.98143  1.0000
  H   H9        1.0  0.17255  0.41176  0.91669  1.0000
  H   H10       1.0  0.82744  0.08331  0.58823  1.0000
  H   H11       1.0  0.05305  0.30070  0.18412  1.0000
  H   H12       1.0  0.94694  0.81589  0.69930  1.0000
  H   H13       1.0  0.18134  0.04453  0.32329  1.0000
  H   H14       1.0  0.81866  0.67671  0.95547  1.0000
  H   H15       1.0  0.38421  0.81411  0.31988  1.0000
  H   H16       1.0  0.61578  0.68012  0.18589  1.0000
  C   C1        1.0  0.26896  0.52845  0.18593  1.0000
  C   C2        1.0  0.73105  0.81406  0.47155  1.0000
  C   C3        1.0  0.33614  0.59133  0.03723  1.0000
  C   C4        1.0  0.66387  0.96276  0.40867  1.0000
  C   C5        1.0  0.26834  0.73379  0.96067  1.0000
  C   C6        1.0  0.73167  0.03932  0.26621  1.0000
  C   C7        1.0  0.13451  0.81405  0.03293  1.0000
  C   C8        1.0  0.86549  0.96706  0.18595  1.0000
  C   C9        1.0  0.07007  0.74075  0.18259  1.0000
  C   C10       1.0  0.92994  0.81741  0.25925  1.0000
  C   C11       1.0  0.06434  0.96395  0.96210  1.0000
  C   C12       1.0  0.93567  0.03790  0.03605  1.0000
  C   C13       1.0  0.22731  0.30118  0.98180  1.0000
  C   C14       1.0  0.77268  0.01820  0.69883  1.0000
  C   C15       1.0  0.16009  0.23860  0.13101  1.0000
  C   C16       1.0  0.83990  0.86900  0.76140  1.0000
  C   C17       1.0  0.23029  0.09699  0.20752  1.0000
  C   C18       1.0  0.76970  0.79248  0.90301  1.0000
  C   C19       1.0  0.36548  0.01850  0.13434  1.0000
  C   C20       1.0  0.63452  0.86567  0.98149  1.0000
  C   C21       1.0  0.42882  0.09262  0.98422  1.0000
  C   C22       1.0  0.57117  0.01578  0.90739  1.0000
  C   C23       1.0  0.43603  0.86886  0.20526  1.0000
  C   C24       1.0  0.56397  0.79474  0.13114  1.0000
  I   I1        1.0  0.26432  0.62211  0.60461  1.0000
  I   I2        1.0  0.73569  0.39540  0.37789  1.0000
  I   I3        1.0  0.24073  0.18923  0.55185  1.0000
  I   I4        1.0  0.75928  0.44815  0.81077  1.0000
  N   N1        1.0  0.13842  0.60030  0.25517  1.0000
  N   N2        1.0  0.86159  0.74482  0.39969  1.0000
  N   N3        1.0  0.35868  0.23184  0.91125  1.0000
  N   N4        1.0  0.64131  0.08876  0.76816  1.0000
