data_image0
_chemical_formula_structural       CdP2H34C22S4N4O4
_chemical_formula_sum              "Cd1 P2 H34 C22 S4 N4 O4"
_cell_length_a       8.89477
_cell_length_b       9.34655
_cell_length_c       10.3729
_cell_angle_alpha    66.0501
_cell_angle_beta     76.6556
_cell_angle_gamma    72.3064

_space_group_name_H-M_alt    "P 1"
_space_group_IT_number       1

loop_
  _space_group_symop_operation_xyz
  'x, y, z'

loop_
  _atom_site_type_symbol
  _atom_site_label
  _atom_site_symmetry_multiplicity
  _atom_site_fract_x
  _atom_site_fract_y
  _atom_site_fract_z
  _atom_site_occupancy
  Cd  Cd1       1.0  0.50000  1.00000  0.50000  1.0000
  P   P1        1.0  0.63523  0.63042  0.69036  1.0000
  P   P2        1.0  0.36477  0.36958  0.30964  1.0000
  H   H1        1.0  0.18140  0.16319  0.30707  1.0000
  H   H2        1.0  0.81860  0.83681  0.69293  1.0000
  H   H3        1.0  0.34941  0.67040  0.54496  1.0000
  H   H4        1.0  0.65060  0.32959  0.45504  1.0000
  H   H5        1.0  0.07009  0.71087  0.44161  1.0000
  H   H6        1.0  0.92990  0.28912  0.55839  1.0000
  H   H7        1.0  0.91457  0.16310  0.26162  1.0000
  H   H8        1.0  0.08543  0.83690  0.73838  1.0000
  H   H9        1.0  0.84883  0.98302  0.34259  1.0000
  H   H10       1.0  0.15117  0.01697  0.65741  1.0000
  H   H11       1.0  0.75477  0.94904  0.16522  1.0000
  H   H12       1.0  0.24523  0.05097  0.83478  1.0000
  H   H13       1.0  0.20344  0.07904  0.06870  1.0000
  H   H14       1.0  0.79656  0.92096  0.93129  1.0000
  H   H15       1.0  0.89388  0.32812  0.82447  1.0000
  H   H16       1.0  0.10612  0.67188  0.17553  1.0000
  H   H17       1.0  0.93950  0.46683  0.64991  1.0000
  H   H18       1.0  0.06050  0.53317  0.35009  1.0000
  H   H19       1.0  0.16482  0.37807  0.78936  1.0000
  H   H20       1.0  0.83518  0.62193  0.21064  1.0000
  H   H21       1.0  0.03950  0.44680  0.92324  1.0000
  H   H22       1.0  0.96050  0.55320  0.07676  1.0000
  H   H23       1.0  0.08086  0.58701  0.74810  1.0000
  H   H24       1.0  0.91914  0.41299  0.25189  1.0000
  H   H25       1.0  0.40036  0.45915  0.88645  1.0000
  H   H26       1.0  0.59963  0.54085  0.11355  1.0000
  H   H27       1.0  0.59412  0.35344  0.93477  1.0000
  H   H28       1.0  0.40587  0.64656  0.06523  1.0000
  H   H29       1.0  0.43535  0.16175  0.95993  1.0000
  H   H30       1.0  0.56465  0.83825  0.04007  1.0000
  H   H31       1.0  0.60236  0.15340  0.82768  1.0000
  H   H32       1.0  0.39764  0.84660  0.17232  1.0000
  H   H33       1.0  0.41135  0.25852  0.77462  1.0000
  H   H34       1.0  0.58865  0.74148  0.22539  1.0000
  C   C1        1.0  0.19160  0.03437  0.35855  1.0000
  C   C2        1.0  0.80840  0.96562  0.64145  1.0000
  C   C3        1.0  0.27253  0.77903  0.48140  1.0000
  C   C4        1.0  0.72746  0.22098  0.51859  1.0000
  C   C5        1.0  0.13626  0.79627  0.43002  1.0000
  C   C6        1.0  0.86375  0.20374  0.56998  1.0000
  C   C7        1.0  0.94777  0.03509  0.27501  1.0000
  C   C8        1.0  0.05223  0.96492  0.72499  1.0000
  C   C9        1.0  0.97622  0.01583  0.13308  1.0000
  C   C10       1.0  0.02378  0.98417  0.86693  1.0000
  C   C11       1.0  0.86238  0.97194  0.09254  1.0000
  C   C12       1.0  0.13762  0.02806  0.90746  1.0000
  C   C13       1.0  0.11396  0.04390  0.03906  1.0000
  C   C14       1.0  0.88604  0.95610  0.96094  1.0000
  C   C15       1.0  0.91826  0.44797  0.76394  1.0000
  C   C16       1.0  0.08174  0.55203  0.23607  1.0000
  C   C17       1.0  0.05824  0.46681  0.80951  1.0000
  C   C18       1.0  0.94176  0.53319  0.19049  1.0000
  C   C19       1.0  0.51280  0.38122  0.85806  1.0000
  C   C20       1.0  0.48720  0.61878  0.14194  1.0000
  C   C21       1.0  0.48881  0.22980  0.85452  1.0000
  C   C22       1.0  0.51119  0.77020  0.14548  1.0000
  S   S1        1.0  0.46702  0.78207  0.76748  1.0000
  S   S2        1.0  0.53298  0.21793  0.23252  1.0000
  S   S3        1.0  0.71456  0.71405  0.48400  1.0000
  S   S4        1.0  0.28543  0.28595  0.51600  1.0000
  N   N1        1.0  0.30526  0.92841  0.43640  1.0000
  N   N2        1.0  0.69475  0.07158  0.56360  1.0000
  N   N3        1.0  0.08624  0.95893  0.35267  1.0000
  N   N4        1.0  0.91376  0.04106  0.64733  1.0000
  O   O1        1.0  0.77724  0.56818  0.78883  1.0000
  O   O2        1.0  0.22275  0.43182  0.21117  1.0000
  O   O3        1.0  0.58041  0.47105  0.71563  1.0000
  O   O4        1.0  0.41959  0.52895  0.28437  1.0000
