data_image0
_chemical_formula_structural       Cu2H22C26N2O8
_chemical_formula_sum              "Cu2 H22 C26 N2 O8"
_cell_length_a       4.96585
_cell_length_b       7.22375
_cell_length_c       16.7846
_cell_angle_alpha    77.5503
_cell_angle_beta     87.125
_cell_angle_gamma    76.6384

_space_group_name_H-M_alt    "P 1"
_space_group_IT_number       1

loop_
  _space_group_symop_operation_xyz
  'x, y, z'

loop_
  _atom_site_type_symbol
  _atom_site_label
  _atom_site_symmetry_multiplicity
  _atom_site_fract_x
  _atom_site_fract_y
  _atom_site_fract_z
  _atom_site_occupancy
  Cu  Cu1       1.0  0.89485  0.84454  0.88913  1.0000
  Cu  Cu2       1.0  0.39381  0.73395  0.11070  1.0000
  H   H1        1.0  0.11241  0.46133  0.94229  1.0000
  H   H2        1.0  0.61204  0.40367  0.05749  1.0000
  H   H3        1.0  0.22674  0.60021  0.98778  1.0000
  H   H4        1.0  0.72647  0.58821  0.01214  1.0000
  H   H5        1.0  0.32552  0.55608  0.79215  1.0000
  H   H6        1.0  0.82390  0.34892  0.20781  1.0000
  H   H7        1.0  0.99216  0.69071  0.67715  1.0000
  H   H8        1.0  0.49088  0.36825  0.32297  1.0000
  H   H9        1.0  0.77008  0.95587  0.57134  1.0000
  H   H10       1.0  0.26956  0.52716  0.42896  1.0000
  H   H11       1.0  0.69097  0.30340  0.49795  1.0000
  H   H12       1.0  0.19089  0.80107  0.50245  1.0000
  H   H13       1.0  0.95795  0.51948  0.53904  1.0000
  H   H14       1.0  0.45846  0.05800  0.46135  1.0000
  H   H15       1.0  0.30397  0.39546  0.64673  1.0000
  H   H16       1.0  0.80437  0.04182  0.35355  1.0000
  H   H17       1.0  0.52111  0.30036  0.73990  1.0000
  H   H18       1.0  0.02018  0.04067  0.25990  1.0000
  H   H19       1.0  0.69055  0.32213  0.89463  1.0000
  H   H20       1.0  0.18963  0.21727  0.10511  1.0000
  H   H21       1.0  0.90414  0.35524  0.80677  1.0000
  H   H22       1.0  0.40337  0.16222  0.19292  1.0000
  C   C1        1.0  0.43290  0.01963  0.74270  1.0000
  C   C2        1.0  0.93197  0.76268  0.25729  1.0000
  C   C3        1.0  0.47299  0.81893  0.78263  1.0000
  C   C4        1.0  0.97165  0.60210  0.21731  1.0000
  C   C5        1.0  0.30381  0.70473  0.75747  1.0000
  C   C6        1.0  0.80235  0.46271  0.24254  1.0000
  C   C7        1.0  0.12020  0.78006  0.69440  1.0000
  C   C8        1.0  0.61894  0.47486  0.30568  1.0000
  C   C9        1.0  0.88849  0.05255  0.58721  1.0000
  C   C10       1.0  0.38808  0.63968  0.41310  1.0000
  C   C11       1.0  0.84290  0.24483  0.54678  1.0000
  C   C12       1.0  0.34278  0.79138  0.45357  1.0000
  C   C13       1.0  0.99394  0.36693  0.57034  1.0000
  C   C14       1.0  0.49419  0.93688  0.43002  1.0000
  C   C15       1.0  0.18735  0.29612  0.63262  1.0000
  C   C16       1.0  0.68756  0.92844  0.36769  1.0000
  C   C17       1.0  0.23785  0.09941  0.67589  1.0000
  C   C18       1.0  0.73747  0.77535  0.32428  1.0000
  C   C19       1.0  0.08276  0.97701  0.65140  1.0000
  C   C20       1.0  0.58209  0.62854  0.34880  1.0000
  C   C21       1.0  0.57115  0.14649  0.77040  1.0000
  C   C22       1.0  0.07003  0.91731  0.22941  1.0000
  C   C23       1.0  0.85107  0.24552  0.85783  1.0000
  C   C24       1.0  0.35011  0.10376  0.14186  1.0000
  C   C25       1.0  0.10014  0.14972  0.91309  1.0000
  C   C26       1.0  0.59914  0.06310  0.08657  1.0000
  N   N1        1.0  0.74714  0.09865  0.83000  1.0000
  N   N2        1.0  0.24598  0.92905  0.16976  1.0000
  O   O1        1.0  0.64885  0.72898  0.84105  1.0000
  O   O2        1.0  0.14730  0.57057  0.15883  1.0000
  O   O3        1.0  0.15753  0.96347  0.93457  1.0000
  O   O4        1.0  0.65649  0.89824  0.06519  1.0000
  O   O5        1.0  0.05601  0.59232  0.96145  1.0000
  O   O6        1.0  0.55568  0.55391  0.03845  1.0000
  O   O7        1.0  0.23832  0.25574  0.93524  1.0000
  O   O8        1.0  0.73759  0.19114  0.06435  1.0000
