data_image0
_chemical_formula_structural       La2H30C44O20
_chemical_formula_sum              "La2 H30 C44 O20"
_cell_length_a       8.78215
_cell_length_b       9.954
_cell_length_c       13.0486
_cell_angle_alpha    108.293
_cell_angle_beta     104.444
_cell_angle_gamma    93.6435

_space_group_name_H-M_alt    "P 1"
_space_group_IT_number       1

loop_
  _space_group_symop_operation_xyz
  'x, y, z'

loop_
  _atom_site_type_symbol
  _atom_site_label
  _atom_site_symmetry_multiplicity
  _atom_site_fract_x
  _atom_site_fract_y
  _atom_site_fract_z
  _atom_site_occupancy
  La  La1       1.0  0.12224  0.79620  0.07937  1.0000
  La  La2       1.0  0.87776  0.20380  0.92063  1.0000
  H   H1        1.0  0.31914  0.89502  0.93676  1.0000
  H   H2        1.0  0.68086  0.10498  0.06324  1.0000
  H   H3        1.0  0.43394  0.80464  0.98574  1.0000
  H   H4        1.0  0.56605  0.19536  0.01426  1.0000
  H   H5        1.0  0.22224  0.94829  0.38812  1.0000
  H   H6        1.0  0.77776  0.05171  0.61187  1.0000
  H   H7        1.0  0.23272  0.53622  0.88859  1.0000
  H   H8        1.0  0.76728  0.46378  0.11141  1.0000
  H   H9        1.0  0.18874  0.49005  0.98418  1.0000
  H   H10       1.0  0.81126  0.50995  0.01582  1.0000
  H   H11       1.0  0.81527  0.81552  0.62291  1.0000
  H   H12       1.0  0.18473  0.18448  0.37709  1.0000
  H   H13       1.0  0.95528  0.76193  0.47589  1.0000
  H   H14       1.0  0.04472  0.23807  0.52411  1.0000
  H   H15       1.0  0.50951  0.47338  0.33944  1.0000
  H   H16       1.0  0.49049  0.52662  0.66057  1.0000
  H   H17       1.0  0.77607  0.33479  0.65399  1.0000
  H   H18       1.0  0.22394  0.66521  0.34600  1.0000
  H   H19       1.0  0.67212  0.69280  0.13973  1.0000
  H   H20       1.0  0.32787  0.30720  0.86027  1.0000
  H   H21       1.0  0.83645  0.12620  0.22098  1.0000
  H   H22       1.0  0.16355  0.87380  0.77902  1.0000
  H   H23       1.0  0.51779  0.23356  0.49397  1.0000
  H   H24       1.0  0.48222  0.76644  0.50603  1.0000
  H   H25       1.0  0.61056  0.94505  0.20177  1.0000
  H   H26       1.0  0.38943  0.05496  0.79823  1.0000
  H   H27       1.0  0.89005  0.36577  0.36879  1.0000
  H   H28       1.0  0.10995  0.63423  0.63121  1.0000
  H   H29       1.0  0.46596  0.52728  0.16197  1.0000
  H   H30       1.0  0.53404  0.47271  0.83803  1.0000
  C   C1        1.0  0.73514  0.61435  0.42107  1.0000
  C   C2        1.0  0.26486  0.38565  0.57893  1.0000
  C   C3        1.0  0.83200  0.55986  0.74558  1.0000
  C   C4        1.0  0.16800  0.44014  0.25442  1.0000
  C   C5        1.0  0.80785  0.70914  0.62947  1.0000
  C   C6        1.0  0.19215  0.29086  0.37053  1.0000
  C   C7        1.0  0.84726  0.70934  0.40797  1.0000
  C   C8        1.0  0.15274  0.29066  0.59203  1.0000
  C   C9        1.0  0.86174  0.52846  0.85340  1.0000
  C   C10       1.0  0.13826  0.47154  0.14660  1.0000
  C   C11       1.0  0.76378  0.58957  0.53015  1.0000
  C   C12       1.0  0.23623  0.41043  0.46985  1.0000
  C   C13       1.0  0.90001  0.83554  0.83435  1.0000
  C   C14       1.0  0.09999  0.16446  0.16565  1.0000
  C   C15       1.0  0.70788  0.31618  0.44191  1.0000
  C   C16       1.0  0.29213  0.68382  0.55809  1.0000
  C   C17       1.0  0.59848  0.54705  0.33064  1.0000
  C   C18       1.0  0.40152  0.45295  0.66937  1.0000
  C   C19       1.0  0.54870  0.08000  0.34510  1.0000
  C   C20       1.0  0.45130  0.92000  0.65490  1.0000
  C   C21       1.0  0.78404  0.44063  0.64647  1.0000
  C   C22       1.0  0.21597  0.55937  0.35353  1.0000
  C   C23       1.0  0.84254  0.69748  0.73664  1.0000
  C   C24       1.0  0.15747  0.30252  0.26336  1.0000
  C   C25       1.0  0.82672  0.73570  0.30659  1.0000
  C   C26       1.0  0.17327  0.26430  0.69341  1.0000
  C   C27       1.0  0.40904  0.97657  0.33008  1.0000
  C   C28       1.0  0.59097  0.02343  0.66992  1.0000
  C   C29       1.0  0.68847  0.67013  0.21794  1.0000
  C   C30       1.0  0.31152  0.32988  0.78206  1.0000
  C   C31       1.0  0.76211  0.15149  0.27791  1.0000
  C   C32       1.0  0.23789  0.84852  0.72209  1.0000
  C   C33       1.0  0.75008  0.45177  0.53920  1.0000
  C   C34       1.0  0.24993  0.54823  0.46080  1.0000
  C   C35       1.0  0.58617  0.21185  0.43305  1.0000
  C   C36       1.0  0.41383  0.78815  0.56695  1.0000
  C   C37       1.0  0.63855  0.04912  0.26815  1.0000
  C   C38       1.0  0.36145  0.95088  0.73185  1.0000
  C   C39       1.0  0.79408  0.28567  0.36222  1.0000
  C   C40       1.0  0.20592  0.71433  0.63778  1.0000
  C   C41       1.0  0.95826  0.82819  0.29455  1.0000
  C   C42       1.0  0.04173  0.17180  0.70544  1.0000
  C   C43       1.0  0.57452  0.57659  0.23048  1.0000
  C   C44       1.0  0.42548  0.42341  0.76952  1.0000
  O   O1        1.0  0.03277  0.84676  0.90735  1.0000
  O   O2        1.0  0.96723  0.15324  0.09265  1.0000
  O   O3        1.0  0.88009  0.40095  0.84652  1.0000
  O   O4        1.0  0.11991  0.59905  0.15348  1.0000
  O   O5        1.0  0.86316  0.62561  0.94614  1.0000
  O   O6        1.0  0.13684  0.37439  0.05386  1.0000
  O   O7        1.0  0.94547  0.84420  0.19924  1.0000
  O   O8        1.0  0.05452  0.15580  0.80075  1.0000
  O   O9        1.0  0.36429  0.87460  0.00565  1.0000
  O   O10       1.0  0.63571  0.12540  0.99435  1.0000
  O   O11       1.0  0.33823  0.01230  0.40918  1.0000
  O   O12       1.0  0.66177  0.98770  0.59082  1.0000
  O   O13       1.0  0.82007  0.93652  0.83462  1.0000
  O   O14       1.0  0.17992  0.06348  0.16539  1.0000
  O   O15       1.0  0.36109  0.86481  0.24455  1.0000
  O   O16       1.0  0.63891  0.13519  0.75544  1.0000
  O   O17       1.0  0.22731  0.57431  0.96599  1.0000
  O   O18       1.0  0.77269  0.42569  0.03401  1.0000
  O   O19       1.0  0.07698  0.88141  0.38119  1.0000
  O   O20       1.0  0.92301  0.11859  0.61880  1.0000
