data_image0
_chemical_formula_structural       Cd2H30C26N4O14
_chemical_formula_sum              "Cd2 H30 C26 N4 O14"
_cell_length_a       9.07234
_cell_length_b       10.2767
_cell_length_c       10.1982
_cell_angle_alpha    63.3381
_cell_angle_beta     64.4049
_cell_angle_gamma    80.1092

_space_group_name_H-M_alt    "P 1"
_space_group_IT_number       1

loop_
  _space_group_symop_operation_xyz
  'x, y, z'

loop_
  _atom_site_type_symbol
  _atom_site_label
  _atom_site_symmetry_multiplicity
  _atom_site_fract_x
  _atom_site_fract_y
  _atom_site_fract_z
  _atom_site_occupancy
  Cd  Cd1       1.0  0.42676  0.59880  0.25085  1.0000
  Cd  Cd2       1.0  0.57324  0.40120  0.74915  1.0000
  H   H1        1.0  0.59717  0.69885  0.89861  1.0000
  H   H2        1.0  0.40284  0.30115  0.10138  1.0000
  H   H3        1.0  0.60952  0.81521  0.95660  1.0000
  H   H4        1.0  0.39049  0.18478  0.04340  1.0000
  H   H5        1.0  0.30476  0.43631  0.59049  1.0000
  H   H6        1.0  0.69524  0.56369  0.40951  1.0000
  H   H7        1.0  0.32810  0.59417  0.55513  1.0000
  H   H8        1.0  0.67190  0.40583  0.44487  1.0000
  H   H9        1.0  0.81077  0.78933  0.33964  1.0000
  H   H10       1.0  0.18923  0.21068  0.66035  1.0000
  H   H11       1.0  0.78975  0.20168  0.36144  1.0000
  H   H12       1.0  0.21026  0.79832  0.63856  1.0000
  H   H13       1.0  0.42861  0.08234  0.26293  1.0000
  H   H14       1.0  0.57139  0.91767  0.73708  1.0000
  H   H15       1.0  0.88845  0.75065  0.56030  1.0000
  H   H16       1.0  0.11154  0.24935  0.43970  1.0000
  H   H17       1.0  0.09042  0.81914  0.49400  1.0000
  H   H18       1.0  0.90957  0.18085  0.50600  1.0000
  H   H19       1.0  0.04328  0.77390  0.36682  1.0000
  H   H20       1.0  0.95671  0.22610  0.63318  1.0000
  H   H21       1.0  0.19401  0.87564  0.08037  1.0000
  H   H22       1.0  0.80599  0.12435  0.91963  1.0000
  H   H23       1.0  0.96235  0.81997  0.99810  1.0000
  H   H24       1.0  0.03765  0.18002  0.00190  1.0000
  H   H25       1.0  0.18034  0.42667  0.20317  1.0000
  H   H26       1.0  0.81967  0.57332  0.79683  1.0000
  H   H27       1.0  0.84561  0.58927  0.04707  1.0000
  H   H28       1.0  0.15439  0.41073  0.95293  1.0000
  H   H29       1.0  0.89264  0.42316  0.18103  1.0000
  H   H30       1.0  0.10737  0.57683  0.81897  1.0000
  C   C1        1.0  0.55061  0.82351  0.26631  1.0000
  C   C2        1.0  0.44939  0.17650  0.73369  1.0000
  C   C3        1.0  0.61636  0.92857  0.29399  1.0000
  C   C4        1.0  0.38364  0.07144  0.70602  1.0000
  C   C5        1.0  0.75384  0.89319  0.33126  1.0000
  C   C6        1.0  0.24615  0.10681  0.66874  1.0000
  C   C7        1.0  0.81592  0.99183  0.35597  1.0000
  C   C8        1.0  0.18408  0.00818  0.64403  1.0000
  C   C9        1.0  0.74146  0.12585  0.34115  1.0000
  C   C10       1.0  0.25854  0.87416  0.65885  1.0000
  C   C11       1.0  0.60407  0.16076  0.30473  1.0000
  C   C12       1.0  0.39593  0.83925  0.69527  1.0000
  C   C13       1.0  0.54014  0.06076  0.28331  1.0000
  C   C14       1.0  0.45986  0.93925  0.71669  1.0000
  C   C15       1.0  0.52765  0.30501  0.28723  1.0000
  C   C16       1.0  0.47235  0.69499  0.71277  1.0000
  C   C17       1.0  0.99442  0.81793  0.45722  1.0000
  C   C18       1.0  0.00557  0.18207  0.54278  1.0000
  C   C19       1.0  0.15574  0.77409  0.09488  1.0000
  C   C20       1.0  0.84426  0.22591  0.90512  1.0000
  C   C21       1.0  0.04238  0.74882  0.05246  1.0000
  C   C22       1.0  0.95761  0.25117  0.94753  1.0000
  C   C23       1.0  0.15360  0.54131  0.16032  1.0000
  C   C24       1.0  0.84640  0.45868  0.83967  1.0000
  C   C25       1.0  0.94660  0.52084  0.06979  1.0000
  C   C26       1.0  0.05340  0.47915  0.93021  1.0000
  N   N1        1.0  0.22398  0.64335  0.16251  1.0000
  N   N2        1.0  0.77603  0.35665  0.83749  1.0000
  N   N3        1.0  0.04287  0.60083  0.09458  1.0000
  N   N4        1.0  0.95714  0.39916  0.90541  1.0000
  O   O1        1.0  0.42880  0.85667  0.22825  1.0000
  O   O2        1.0  0.57120  0.14333  0.77174  1.0000
  O   O3        1.0  0.62238  0.70126  0.28115  1.0000
  O   O4        1.0  0.37761  0.29874  0.71886  1.0000
  O   O5        1.0  0.42162  0.34795  0.22668  1.0000
  O   O6        1.0  0.57838  0.65206  0.77332  1.0000
  O   O7        1.0  0.57230  0.38485  0.33114  1.0000
  O   O8        1.0  0.42769  0.61516  0.66886  1.0000
  O   O9        1.0  0.94814  0.96681  0.39370  1.0000
  O   O10       1.0  0.05186  0.03319  0.60630  1.0000
  O   O11       1.0  0.62447  0.71245  0.97791  1.0000
  O   O12       1.0  0.37554  0.28755  0.02209  1.0000
  O   O13       1.0  0.27798  0.53727  0.52754  1.0000
  O   O14       1.0  0.72202  0.46273  0.47246  1.0000
