data_image0
_chemical_formula_structural       Zn2H16C20S4N4Cl4
_chemical_formula_sum              "Zn2 H16 C20 S4 N4 Cl4"
_cell_length_a       7.88932
_cell_length_b       7.88932
_cell_length_c       10.9892
_cell_angle_alpha    88.3198
_cell_angle_beta     88.3198
_cell_angle_gamma    77.2795

_space_group_name_H-M_alt    "P 1"
_space_group_IT_number       1

loop_
  _space_group_symop_operation_xyz
  'x, y, z'

loop_
  _atom_site_type_symbol
  _atom_site_label
  _atom_site_symmetry_multiplicity
  _atom_site_fract_x
  _atom_site_fract_y
  _atom_site_fract_z
  _atom_site_occupancy
  Zn  Zn1       1.0  0.95081  0.04919  0.75000  1.0000
  Zn  Zn2       1.0  0.04919  0.95081  0.25000  1.0000
  H   H1        1.0  0.93868  0.41128  0.83014  1.0000
  H   H2        1.0  0.58872  0.06132  0.66986  1.0000
  H   H3        1.0  0.06132  0.58872  0.16986  1.0000
  H   H4        1.0  0.41128  0.93868  0.33014  1.0000
  H   H5        1.0  0.79507  0.60913  0.99042  1.0000
  H   H6        1.0  0.39087  0.20493  0.50958  1.0000
  H   H7        1.0  0.20493  0.39086  0.00958  1.0000
  H   H8        1.0  0.60913  0.79507  0.49042  1.0000
  H   H9        1.0  0.59135  0.18010  0.14642  1.0000
  H   H10       1.0  0.81990  0.40865  0.35358  1.0000
  H   H11       1.0  0.40865  0.81990  0.85358  1.0000
  H   H12       1.0  0.18010  0.59135  0.64642  1.0000
  H   H13       1.0  0.73986  0.00159  0.97450  1.0000
  H   H14       1.0  0.99841  0.26014  0.52550  1.0000
  H   H15       1.0  0.26014  0.99841  0.02550  1.0000
  H   H16       1.0  0.00159  0.73986  0.47450  1.0000
  C   C1        1.0  0.85899  0.36543  0.90114  1.0000
  C   C2        1.0  0.63458  0.14101  0.59886  1.0000
  C   C3        1.0  0.14101  0.63458  0.09886  1.0000
  C   C4        1.0  0.36542  0.85899  0.40114  1.0000
  C   C5        1.0  0.77892  0.47543  0.99199  1.0000
  C   C6        1.0  0.52457  0.22108  0.50801  1.0000
  C   C7        1.0  0.22108  0.52457  0.00801  1.0000
  C   C8        1.0  0.47543  0.77892  0.49199  1.0000
  C   C9        1.0  0.67969  0.41029  0.08261  1.0000
  C   C10       1.0  0.58971  0.32030  0.41739  1.0000
  C   C11       1.0  0.32030  0.58971  0.91739  1.0000
  C   C12       1.0  0.41029  0.67969  0.58260  1.0000
  C   C13       1.0  0.66441  0.23753  0.07719  1.0000
  C   C14       1.0  0.76247  0.33559  0.42281  1.0000
  C   C15       1.0  0.33559  0.76247  0.92281  1.0000
  C   C16       1.0  0.23753  0.66441  0.57719  1.0000
  C   C17       1.0  0.74760  0.13721  0.98229  1.0000
  C   C18       1.0  0.86279  0.25240  0.51771  1.0000
  C   C19       1.0  0.25240  0.86279  0.01771  1.0000
  C   C20       1.0  0.13721  0.74760  0.48229  1.0000
  S   S1        1.0  0.58278  0.55555  0.19675  1.0000
  S   S2        1.0  0.44445  0.41722  0.30325  1.0000
  S   S3        1.0  0.41722  0.44445  0.80325  1.0000
  S   S4        1.0  0.55555  0.58278  0.69675  1.0000
  N   N1        1.0  0.84339  0.19901  0.89526  1.0000
  N   N2        1.0  0.80099  0.15661  0.60474  1.0000
  N   N3        1.0  0.15661  0.80099  0.10474  1.0000
  N   N4        1.0  0.19901  0.84339  0.39526  1.0000
  Cl  Cl1       1.0  0.89066  0.78853  0.78672  1.0000
  Cl  Cl2       1.0  0.21147  0.10934  0.71327  1.0000
  Cl  Cl3       1.0  0.10934  0.21147  0.21327  1.0000
  Cl  Cl4       1.0  0.78853  0.89066  0.28672  1.0000
