data_image0
_chemical_formula_structural       Cu4H16C12N32O16
_chemical_formula_sum              "Cu4 H16 C12 N32 O16"
_cell_length_a       8.82209
_cell_length_b       9.18365
_cell_length_c       10.6634
_cell_angle_alpha    90.0094
_cell_angle_beta     90.0143
_cell_angle_gamma    106.801

_space_group_name_H-M_alt    "P 1"
_space_group_IT_number       1

loop_
  _space_group_symop_operation_xyz
  'x, y, z'

loop_
  _atom_site_type_symbol
  _atom_site_label
  _atom_site_symmetry_multiplicity
  _atom_site_fract_x
  _atom_site_fract_y
  _atom_site_fract_z
  _atom_site_occupancy
  Cu  Cu1       1.0  0.67032  0.18288  0.93196  1.0000
  Cu  Cu2       1.0  0.32965  0.31721  0.43212  1.0000
  Cu  Cu3       1.0  0.32980  0.81709  0.06805  1.0000
  Cu  Cu4       1.0  0.67028  0.68279  0.56790  1.0000
  H   H1        1.0  0.81398  0.74298  0.08120  1.0000
  H   H2        1.0  0.18598  0.75702  0.58116  1.0000
  H   H3        1.0  0.18582  0.25701  0.91889  1.0000
  H   H4        1.0  0.81405  0.24296  0.41884  1.0000
  H   H5        1.0  0.90008  0.57454  0.91402  1.0000
  H   H6        1.0  0.09991  0.92529  0.41386  1.0000
  H   H7        1.0  0.10027  0.42557  0.08623  1.0000
  H   H8        1.0  0.90002  0.07464  0.58612  1.0000
  H   H9        1.0  0.91920  0.31210  0.79238  1.0000
  H   H10       1.0  0.08093  0.18791  0.29234  1.0000
  H   H11       1.0  0.08077  0.68793  0.20758  1.0000
  H   H12       1.0  0.91906  0.81214  0.70759  1.0000
  H   H13       1.0  0.91801  0.13692  0.81767  1.0000
  H   H14       1.0  0.08196  0.36311  0.31768  1.0000
  H   H15       1.0  0.08223  0.86318  0.18213  1.0000
  H   H16       1.0  0.91792  0.63690  0.68235  1.0000
  C   C1        1.0  0.63271  0.40297  0.10964  1.0000
  C   C2        1.0  0.36732  0.09696  0.60963  1.0000
  C   C3        1.0  0.36727  0.59697  0.89029  1.0000
  C   C4        1.0  0.63266  0.90302  0.39031  1.0000
  C   C5        1.0  0.81139  0.53486  0.98634  1.0000
  C   C6        1.0  0.18861  0.96504  0.48624  1.0000
  C   C7        1.0  0.18873  0.46516  0.01375  1.0000
  C   C8        1.0  0.81134  0.03492  0.51373  1.0000
  C   C9        1.0  0.52185  0.26246  0.15011  1.0000
  C   C10       1.0  0.47818  0.23748  0.65017  1.0000
  C   C11       1.0  0.47824  0.73748  0.84988  1.0000
  C   C12       1.0  0.52179  0.76250  0.34982  1.0000
  N   N1        1.0  0.40474  0.02669  0.12953  1.0000
  N   N2        1.0  0.59508  0.47330  0.62946  1.0000
  N   N3        1.0  0.59537  0.97325  0.87058  1.0000
  N   N4        1.0  0.40481  0.52671  0.37064  1.0000
  N   N5        1.0  0.35061  0.07299  0.23241  1.0000
  N   N6        1.0  0.64929  0.42723  0.73240  1.0000
  N   N7        1.0  0.64939  0.92706  0.76761  1.0000
  N   N8        1.0  0.35058  0.57274  0.26769  1.0000
  N   N9        1.0  0.42267  0.22180  0.24778  1.0000
  N   N10       1.0  0.57735  0.27839  0.74784  1.0000
  N   N11       1.0  0.57733  0.77827  0.75217  1.0000
  N   N12       1.0  0.42257  0.72155  0.25218  1.0000
  N   N13       1.0  0.72399  0.39203  0.00771  1.0000
  N   N14       1.0  0.27606  0.10789  0.50763  1.0000
  N   N15       1.0  0.27613  0.60796  0.99228  1.0000
  N   N16       1.0  0.72389  0.89209  0.49232  1.0000
  N   N17       1.0  0.65864  0.54404  0.15124  1.0000
  N   N18       1.0  0.34134  0.95594  0.65127  1.0000
  N   N19       1.0  0.34121  0.45586  0.84870  1.0000
  N   N20       1.0  0.65863  0.04406  0.34869  1.0000
  N   N21       1.0  0.77210  0.62478  0.07191  1.0000
  N   N22       1.0  0.22786  0.87517  0.57187  1.0000
  N   N23       1.0  0.22783  0.37518  0.92814  1.0000
  N   N24       1.0  0.77210  0.12481  0.42811  1.0000
  N   N25       1.0  0.51216  0.14203  0.07543  1.0000
  N   N26       1.0  0.48774  0.35779  0.57537  1.0000
  N   N27       1.0  0.48802  0.85785  0.92468  1.0000
  N   N28       1.0  0.51223  0.64222  0.42466  1.0000
  N   N29       1.0  0.90652  0.04023  0.13720  1.0000
  N   N30       1.0  0.09333  0.45972  0.63722  1.0000
  N   N31       1.0  0.09346  0.95983  0.86278  1.0000
  N   N32       1.0  0.90665  0.54030  0.36276  1.0000
  O   O1        1.0  0.88332  0.22343  0.85064  1.0000
  O   O2        1.0  0.11696  0.27672  0.35050  1.0000
  O   O3        1.0  0.11682  0.77657  0.14931  1.0000
  O   O4        1.0  0.88299  0.72329  0.64947  1.0000
  O   O5        1.0  0.00516  0.01634  0.21865  1.0000
  O   O6        1.0  0.99486  0.48383  0.71870  1.0000
  O   O7        1.0  0.99491  0.98374  0.78124  1.0000
  O   O8        1.0  0.00512  0.51622  0.28127  1.0000
  O   O9        1.0  0.82760  0.93125  0.06987  1.0000
  O   O10       1.0  0.17233  0.56858  0.56990  1.0000
  O   O11       1.0  0.17216  0.06874  0.93026  1.0000
  O   O12       1.0  0.82776  0.43144  0.43014  1.0000
  O   O13       1.0  0.89108  0.17053  0.12664  1.0000
  O   O14       1.0  0.10853  0.32931  0.62665  1.0000
  O   O15       1.0  0.10902  0.82957  0.87326  1.0000
  O   O16       1.0  0.89137  0.67068  0.37329  1.0000
