data_image0
_chemical_formula_structural       Zn2H24C30N8O10
_chemical_formula_sum              "Zn2 H24 C30 N8 O10"
_cell_length_a       8.94179
_cell_length_b       9.94804
_cell_length_c       11.4631
_cell_angle_alpha    80.3238
_cell_angle_beta     73.6359
_cell_angle_gamma    65.2412

_space_group_name_H-M_alt    "P 1"
_space_group_IT_number       1

loop_
  _space_group_symop_operation_xyz
  'x, y, z'

loop_
  _atom_site_type_symbol
  _atom_site_label
  _atom_site_symmetry_multiplicity
  _atom_site_fract_x
  _atom_site_fract_y
  _atom_site_fract_z
  _atom_site_occupancy
  Zn  Zn1       1.0  0.07338  0.09041  0.31578  1.0000
  Zn  Zn2       1.0  0.92661  0.90959  0.68422  1.0000
  H   H1        1.0  0.80971  0.70993  0.63907  1.0000
  H   H2        1.0  0.19028  0.29007  0.36094  1.0000
  H   H3        1.0  0.42428  0.88874  0.55495  1.0000
  H   H4        1.0  0.57572  0.11127  0.44505  1.0000
  H   H5        1.0  0.53803  0.09824  0.14925  1.0000
  H   H6        1.0  0.46196  0.90176  0.85075  1.0000
  H   H7        1.0  0.51861  0.93280  0.22418  1.0000
  H   H8        1.0  0.48139  0.06720  0.77581  1.0000
  H   H9        1.0  0.76108  0.17107  0.18988  1.0000
  H   H10       1.0  0.23892  0.82893  0.81011  1.0000
  H   H11       1.0  0.55852  0.56568  0.29671  1.0000
  H   H12       1.0  0.44148  0.43432  0.70330  1.0000
  H   H13       1.0  0.71158  0.08541  0.92387  1.0000
  H   H14       1.0  0.28841  0.91459  0.07613  1.0000
  H   H15       1.0  0.87679  0.48831  0.54214  1.0000
  H   H16       1.0  0.12321  0.51169  0.45786  1.0000
  H   H17       1.0  0.02190  0.78638  0.38725  1.0000
  H   H18       1.0  0.97810  0.21362  0.61275  1.0000
  H   H19       1.0  0.69122  0.68474  0.11270  1.0000
  H   H20       1.0  0.30878  0.31526  0.88731  1.0000
  H   H21       1.0  0.85098  0.63664  0.86760  1.0000
  H   H22       1.0  0.14903  0.36336  0.13240  1.0000
  H   H23       1.0  0.78814  0.73395  0.30364  1.0000
  H   H24       1.0  0.21186  0.26605  0.69636  1.0000
  C   C1        1.0  0.33011  0.83581  0.36571  1.0000
  C   C2        1.0  0.66989  0.16419  0.63429  1.0000
  C   C3        1.0  0.84746  0.37237  0.35033  1.0000
  C   C4        1.0  0.15254  0.62762  0.64969  1.0000
  C   C5        1.0  0.50743  0.78108  0.51844  1.0000
  C   C6        1.0  0.49258  0.21893  0.48155  1.0000
  C   C7        1.0  0.60756  0.97934  0.16637  1.0000
  C   C8        1.0  0.39244  0.02066  0.83363  1.0000
  C   C9        1.0  0.80394  0.05835  0.22931  1.0000
  C   C10       1.0  0.19606  0.94164  0.77069  1.0000
  C   C11       1.0  0.58447  0.60089  0.37108  1.0000
  C   C12       1.0  0.41553  0.39911  0.62892  1.0000
  C   C13       1.0  0.73108  0.96936  0.94178  1.0000
  C   C14       1.0  0.26892  0.03065  0.05822  1.0000
  C   C15       1.0  0.73001  0.51215  0.41311  1.0000
  C   C16       1.0  0.26999  0.48785  0.58689  1.0000
  C   C17       1.0  0.47343  0.73520  0.42346  1.0000
  C   C18       1.0  0.52658  0.26480  0.57654  1.0000
  C   C19       1.0  0.76359  0.55726  0.50904  1.0000
  C   C20       1.0  0.23640  0.44274  0.49096  1.0000
  C   C21       1.0  0.65341  0.69268  0.56068  1.0000
  C   C22       1.0  0.34660  0.30733  0.43932  1.0000
  C   C23       1.0  0.93556  0.85652  0.33125  1.0000
  C   C24       1.0  0.06444  0.14348  0.66875  1.0000
  C   C25       1.0  0.72146  0.75825  0.03729  1.0000
  C   C26       1.0  0.27855  0.24175  0.96271  1.0000
  C   C27       1.0  0.79843  0.73686  0.91625  1.0000
  C   C28       1.0  0.20157  0.26314  0.08376  1.0000
  C   C29       1.0  0.82056  0.82952  0.29161  1.0000
  C   C30       1.0  0.17944  0.17047  0.70839  1.0000
  N   N1        1.0  0.92352  0.99910  0.29181  1.0000
  N   N2        1.0  0.07648  0.00089  0.70818  1.0000
  N   N3        1.0  0.80248  0.86930  0.85792  1.0000
  N   N4        1.0  0.19752  0.13070  0.14208  1.0000
  N   N5        1.0  0.73765  0.95834  0.22775  1.0000
  N   N6        1.0  0.26235  0.04166  0.77225  1.0000
  N   N7        1.0  0.67964  0.90644  0.05181  1.0000
  N   N8        1.0  0.32037  0.09356  0.94819  1.0000
  O   O1        1.0  0.97977  0.28596  0.39435  1.0000
  O   O2        1.0  0.02022  0.71403  0.60564  1.0000
  O   O3        1.0  0.32805  0.80629  0.26388  1.0000
  O   O4        1.0  0.67196  0.19370  0.73611  1.0000
  O   O5        1.0  0.22159  0.95354  0.42224  1.0000
  O   O6        1.0  0.77841  0.04646  0.57775  1.0000
  O   O7        1.0  0.81749  0.34147  0.26052  1.0000
  O   O8        1.0  0.18249  0.65853  0.73948  1.0000
  O   O9        1.0  0.68542  0.74331  0.65105  1.0000
  O   O10       1.0  0.31458  0.25669  0.34895  1.0000
