data_image0
_chemical_formula_structural       CuH26C26S2N4O6
_chemical_formula_sum              "Cu1 H26 C26 S2 N4 O6"
_cell_length_a       7.50582
_cell_length_b       9.57859
_cell_length_c       10.1035
_cell_angle_alpha    68.178
_cell_angle_beta     70.7026
_cell_angle_gamma    86.0096

_space_group_name_H-M_alt    "P 1"
_space_group_IT_number       1

loop_
  _space_group_symop_operation_xyz
  'x, y, z'

loop_
  _atom_site_type_symbol
  _atom_site_label
  _atom_site_symmetry_multiplicity
  _atom_site_fract_x
  _atom_site_fract_y
  _atom_site_fract_z
  _atom_site_occupancy
  Cu  Cu1       1.0  0.00000  0.00000  0.50000  1.0000
  H   H1        1.0  0.28611  0.49758  0.30363  1.0000
  H   H2        1.0  0.71388  0.50243  0.69638  1.0000
  H   H3        1.0  0.58271  0.35914  0.24685  1.0000
  H   H4        1.0  0.41728  0.64086  0.75315  1.0000
  H   H5        1.0  0.85292  0.49324  0.01309  1.0000
  H   H6        1.0  0.14707  0.50676  0.98691  1.0000
  H   H7        1.0  0.18910  0.03924  0.87407  1.0000
  H   H8        1.0  0.81091  0.96076  0.12592  1.0000
  H   H9        1.0  0.21162  0.95300  0.05780  1.0000
  H   H10       1.0  0.78837  0.04700  0.94220  1.0000
  H   H11       1.0  0.14883  0.83925  0.97105  1.0000
  H   H12       1.0  0.85118  0.16075  0.02894  1.0000
  H   H13       1.0  0.60803  0.89975  0.55214  1.0000
  H   H14       1.0  0.39197  0.10025  0.44786  1.0000
  H   H15       1.0  0.67444  0.61062  0.30010  1.0000
  H   H16       1.0  0.32558  0.38937  0.69991  1.0000
  H   H17       1.0  0.02672  0.64345  0.23546  1.0000
  H   H18       1.0  0.97330  0.35655  0.76454  1.0000
  H   H19       1.0  0.14943  0.81771  0.32103  1.0000
  H   H20       1.0  0.85058  0.18230  0.67896  1.0000
  H   H21       1.0  0.37959  0.76475  0.35773  1.0000
  H   H22       1.0  0.62042  0.23525  0.64228  1.0000
  H   H23       1.0  0.35127  0.61666  0.53284  1.0000
  H   H24       1.0  0.64874  0.38333  0.46716  1.0000
  H   H25       1.0  0.18853  0.76966  0.63162  1.0000
  H   H26       1.0  0.81147  0.23033  0.36838  1.0000
  C   C1        1.0  0.86438  0.76085  0.80015  1.0000
  C   C2        1.0  0.13561  0.23914  0.19985  1.0000
  C   C3        1.0  0.70276  0.69105  0.94318  1.0000
  C   C4        1.0  0.29723  0.30894  0.05683  1.0000
  C   C5        1.0  0.52596  0.75687  0.98056  1.0000
  C   C6        1.0  0.47404  0.24313  0.01944  1.0000
  C   C7        1.0  0.40726  0.54963  0.20163  1.0000
  C   C8        1.0  0.59274  0.45038  0.79837  1.0000
  C   C9        1.0  0.57156  0.47312  0.17222  1.0000
  C   C10       1.0  0.42843  0.52688  0.82778  1.0000
  C   C11       1.0  0.72079  0.54715  0.04166  1.0000
  C   C12       1.0  0.27920  0.45284  0.95834  1.0000
  C   C13       1.0  0.23223  0.93890  0.95112  1.0000
  C   C14       1.0  0.76777  0.06110  0.04887  1.0000
  C   C15       1.0  0.69414  0.84061  0.48211  1.0000
  C   C16       1.0  0.30587  0.15939  0.51789  1.0000
  C   C17       1.0  0.61267  0.75106  0.43296  1.0000
  C   C18       1.0  0.38733  0.24894  0.56704  1.0000
  C   C19       1.0  0.73331  0.67835  0.34359  1.0000
  C   C20       1.0  0.26670  0.32165  0.65641  1.0000
  C   C21       1.0  0.92809  0.69678  0.30598  1.0000
  C   C22       1.0  0.07192  0.30323  0.69402  1.0000
  C   C23       1.0  0.99845  0.79238  0.35476  1.0000
  C   C24       1.0  0.00156  0.20763  0.64524  1.0000
  C   C25       1.0  0.40193  0.73588  0.46749  1.0000
  C   C26       1.0  0.59807  0.26412  0.53251  1.0000
  S   S1        1.0  0.47883  0.92776  0.85516  1.0000
  S   S2        1.0  0.52117  0.07224  0.14484  1.0000
  N   N1        1.0  0.38441  0.68732  0.10990  1.0000
  N   N2        1.0  0.61559  0.31268  0.89010  1.0000
  N   N3        1.0  0.88346  0.86159  0.44161  1.0000
  N   N4        1.0  0.11654  0.13842  0.55839  1.0000
  O   O1        1.0  0.84328  0.89613  0.71619  1.0000
  O   O2        1.0  0.15672  0.10388  0.28382  1.0000
  O   O3        1.0  0.00601  0.68487  0.77029  1.0000
  O   O4        1.0  0.99398  0.31512  0.22970  1.0000
  O   O5        1.0  0.30148  0.82917  0.54374  1.0000
  O   O6        1.0  0.69852  0.17082  0.45627  1.0000
