data_image0
_chemical_formula_structural       Cu4H40C28N4O16
_chemical_formula_sum              "Cu4 H40 C28 N4 O16"
_cell_length_a       7.96403
_cell_length_b       8.48648
_cell_length_c       12.9998
_cell_angle_alpha    97.4115
_cell_angle_beta     98.626
_cell_angle_gamma    90.5249

_space_group_name_H-M_alt    "P 1"
_space_group_IT_number       1

loop_
  _space_group_symop_operation_xyz
  'x, y, z'

loop_
  _atom_site_type_symbol
  _atom_site_label
  _atom_site_symmetry_multiplicity
  _atom_site_fract_x
  _atom_site_fract_y
  _atom_site_fract_z
  _atom_site_occupancy
  Cu  Cu1       1.0  0.09436  0.54541  0.08961  1.0000
  Cu  Cu2       1.0  0.90563  0.45459  0.91039  1.0000
  Cu  Cu3       1.0  0.47897  0.93362  0.37188  1.0000
  Cu  Cu4       1.0  0.52103  0.06639  0.62813  1.0000
  H   H1        1.0  0.46275  0.20194  0.95888  1.0000
  H   H2        1.0  0.53725  0.79808  0.04112  1.0000
  H   H3        1.0  0.35449  0.17593  0.82534  1.0000
  H   H4        1.0  0.64551  0.82407  0.17466  1.0000
  H   H5        1.0  0.49000  0.34571  0.87660  1.0000
  H   H6        1.0  0.50999  0.65430  0.12340  1.0000
  H   H7        1.0  0.04812  0.00293  0.91673  1.0000
  H   H8        1.0  0.95189  0.99706  0.08326  1.0000
  H   H9        1.0  0.26353  0.94765  0.92523  1.0000
  H   H10       1.0  0.73647  0.05233  0.07476  1.0000
  H   H11       1.0  0.11715  0.89148  0.80628  1.0000
  H   H12       1.0  0.88286  0.10852  0.19371  1.0000
  H   H13       1.0  0.37206  0.41099  0.40174  1.0000
  H   H14       1.0  0.62794  0.58900  0.59826  1.0000
  H   H15       1.0  0.17932  0.39114  0.30848  1.0000
  H   H16       1.0  0.82069  0.60886  0.69152  1.0000
  H   H17       1.0  0.18997  0.50704  0.43485  1.0000
  H   H18       1.0  0.81003  0.49296  0.56515  1.0000
  H   H19       1.0  0.78476  0.15820  0.44868  1.0000
  H   H20       1.0  0.21525  0.84180  0.55131  1.0000
  H   H21       1.0  0.89807  0.40035  0.38928  1.0000
  H   H22       1.0  0.10193  0.59966  0.61071  1.0000
  H   H23       1.0  0.73804  0.50351  0.23205  1.0000
  H   H24       1.0  0.26197  0.49649  0.76794  1.0000
  H   H25       1.0  0.46948  0.35755  0.13899  1.0000
  H   H26       1.0  0.53053  0.64244  0.86101  1.0000
  H   H27       1.0  0.23700  0.15976  0.16484  1.0000
  H   H28       1.0  0.76300  0.84024  0.83517  1.0000
  H   H29       1.0  0.36734  0.00698  0.11851  1.0000
  H   H30       1.0  0.63265  0.99301  0.88150  1.0000
  H   H31       1.0  0.20030  0.02550  0.30648  1.0000
  H   H32       1.0  0.79970  0.97450  0.69352  1.0000
  H   H33       1.0  0.24207  0.86368  0.22173  1.0000
  H   H34       1.0  0.75794  0.13632  0.77828  1.0000
  H   H35       1.0  0.25065  0.29124  0.64106  1.0000
  H   H36       1.0  0.74933  0.70877  0.35895  1.0000
  H   H37       1.0  0.11094  0.12787  0.64431  1.0000
  H   H38       1.0  0.88904  0.87213  0.35569  1.0000
  H   H39       1.0  0.03295  0.29025  0.57949  1.0000
  H   H40       1.0  0.96704  0.70974  0.42051  1.0000
  C   C1        1.0  0.24814  0.35058  0.93161  1.0000
  C   C2        1.0  0.75185  0.64943  0.06838  1.0000
  C   C3        1.0  0.39676  0.26155  0.89507  1.0000
  C   C4        1.0  0.60324  0.73846  0.10493  1.0000
  C   C5        1.0  0.08777  0.75685  0.93301  1.0000
  C   C6        1.0  0.91222  0.24315  0.06697  1.0000
  C   C7        1.0  0.13306  0.90866  0.89210  1.0000
  C   C8        1.0  0.86694  0.09133  0.10789  1.0000
  C   C9        1.0  0.31282  0.61914  0.32653  1.0000
  C   C10       1.0  0.68719  0.38085  0.67347  1.0000
  C   C11       1.0  0.25924  0.47185  0.36894  1.0000
  C   C12       1.0  0.74077  0.52814  0.63106  1.0000
  C   C13       1.0  0.72105  0.20576  0.38011  1.0000
  C   C14       1.0  0.27895  0.79424  0.61988  1.0000
  C   C15       1.0  0.78109  0.34191  0.34731  1.0000
  C   C16       1.0  0.21891  0.65809  0.65269  1.0000
  C   C17       1.0  0.69179  0.39779  0.25941  1.0000
  C   C18       1.0  0.30822  0.60221  0.74058  1.0000
  C   C19       1.0  0.54547  0.31541  0.20650  1.0000
  C   C20       1.0  0.45453  0.68458  0.79350  1.0000
  C   C21       1.0  0.49366  0.17785  0.24252  1.0000
  C   C22       1.0  0.50634  0.82215  0.75748  1.0000
  C   C23       1.0  0.33867  0.07965  0.18987  1.0000
  C   C24       1.0  0.66133  0.92035  0.81013  1.0000
  C   C25       1.0  0.19518  0.13377  0.49627  1.0000
  C   C26       1.0  0.80482  0.86623  0.50374  1.0000
  C   C27       1.0  0.14405  0.21744  0.59613  1.0000
  C   C28       1.0  0.85594  0.78256  0.40387  1.0000
  N   N1        1.0  0.58118  0.12487  0.32805  1.0000
  N   N2        1.0  0.41883  0.87513  0.67196  1.0000
  N   N3        1.0  0.28622  0.97300  0.26015  1.0000
  N   N4        1.0  0.71379  0.02701  0.73986  1.0000
  O   O1        1.0  0.27539  0.42716  0.02384  1.0000
  O   O2        1.0  0.72460  0.57285  0.97616  1.0000
  O   O3        1.0  0.89014  0.65687  0.13259  1.0000
  O   O4        1.0  0.10986  0.34314  0.86741  1.0000
  O   O5        1.0  0.15253  0.74127  0.02672  1.0000
  O   O6        1.0  0.84746  0.25874  0.97327  1.0000
  O   O7        1.0  0.01407  0.34093  0.12970  1.0000
  O   O8        1.0  0.98592  0.65906  0.87030  1.0000
  O   O9        1.0  0.26859  0.63745  0.23137  1.0000
  O   O10       1.0  0.73142  0.36255  0.76863  1.0000
  O   O11       1.0  0.40496  0.72080  0.39444  1.0000
  O   O12       1.0  0.59505  0.27920  0.60556  1.0000
  O   O13       1.0  0.34263  0.06839  0.50419  1.0000
  O   O14       1.0  0.65737  0.93162  0.49582  1.0000
  O   O15       1.0  0.09747  0.12517  0.41042  1.0000
  O   O16       1.0  0.90253  0.87483  0.58959  1.0000
