data_image0
_chemical_formula_structural       Zn2H24C36N4O12
_chemical_formula_sum              "Zn2 H24 C36 N4 O12"
_cell_length_a       8.16607
_cell_length_b       9.36608
_cell_length_c       12.6558
_cell_angle_alpha    71.5649
_cell_angle_beta     88.0998
_cell_angle_gamma    67.8068

_space_group_name_H-M_alt    "P 1"
_space_group_IT_number       1

loop_
  _space_group_symop_operation_xyz
  'x, y, z'

loop_
  _atom_site_type_symbol
  _atom_site_label
  _atom_site_symmetry_multiplicity
  _atom_site_fract_x
  _atom_site_fract_y
  _atom_site_fract_z
  _atom_site_occupancy
  Zn  Zn1       1.0  0.53336  0.07416  0.30907  1.0000
  Zn  Zn2       1.0  0.46664  0.92584  0.69093  1.0000
  H   H1        1.0  0.69025  0.38473  0.53190  1.0000
  H   H2        1.0  0.30976  0.61528  0.46810  1.0000
  H   H3        1.0  0.18697  0.19539  0.85607  1.0000
  H   H4        1.0  0.81303  0.80459  0.14394  1.0000
  H   H5        1.0  0.99888  0.15386  0.50237  1.0000
  H   H6        1.0  0.00113  0.84614  0.49764  1.0000
  H   H7        1.0  0.84017  0.44323  0.93910  1.0000
  H   H8        1.0  0.15982  0.55678  0.06089  1.0000
  H   H9        1.0  0.23225  0.97875  0.21721  1.0000
  H   H10       1.0  0.76775  0.02124  0.78280  1.0000
  H   H11       1.0  0.82150  0.22316  0.29486  1.0000
  H   H12       1.0  0.17850  0.77684  0.70514  1.0000
  H   H13       1.0  0.08982  0.03424  0.02850  1.0000
  H   H14       1.0  0.91017  0.96575  0.97151  1.0000
  H   H15       1.0  0.63133  0.42979  0.80681  1.0000
  H   H16       1.0  0.36866  0.57021  0.19318  1.0000
  H   H17       1.0  0.95291  0.37762  0.14005  1.0000
  H   H18       1.0  0.04708  0.62239  0.85994  1.0000
  H   H19       1.0  0.38990  0.34263  0.77648  1.0000
  H   H20       1.0  0.61010  0.65736  0.22352  1.0000
  H   H21       1.0  0.59715  0.16218  0.47914  1.0000
  H   H22       1.0  0.40286  0.83782  0.52086  1.0000
  H   H23       1.0  0.70467  0.97736  0.50398  1.0000
  H   H24       1.0  0.29534  0.02263  0.49601  1.0000
  C   C1        1.0  0.79109  0.40421  0.47779  1.0000
  C   C2        1.0  0.20893  0.59579  0.52221  1.0000
  C   C3        1.0  0.03108  0.36739  0.38147  1.0000
  C   C4        1.0  0.96892  0.63262  0.61852  1.0000
  C   C5        1.0  0.78551  0.55330  0.40869  1.0000
  C   C6        1.0  0.21449  0.44671  0.59131  1.0000
  C   C7        1.0  0.58899  0.23990  0.08108  1.0000
  C   C8        1.0  0.41101  0.76011  0.91892  1.0000
  C   C9        1.0  0.19482  0.31168  0.32668  1.0000
  C   C10       1.0  0.80518  0.68832  0.67331  1.0000
  C   C11       1.0  0.45136  0.18649  0.06334  1.0000
  C   C12       1.0  0.54863  0.81351  0.93666  1.0000
  C   C13       1.0  0.65517  0.72020  0.39460  1.0000
  C   C14       1.0  0.34485  0.27981  0.60540  1.0000
  C   C15       1.0  0.24498  0.16868  0.94008  1.0000
  C   C16       1.0  0.75501  0.83132  0.05992  1.0000
  C   C17       1.0  0.94982  0.28488  0.46121  1.0000
  C   C18       1.0  0.05018  0.71513  0.53879  1.0000
  C   C19       1.0  0.78926  0.37593  0.00999  1.0000
  C   C20       1.0  0.21074  0.62408  0.99000  1.0000
  C   C21       1.0  0.27118  0.04819  0.14105  1.0000
  C   C22       1.0  0.72882  0.95181  0.85896  1.0000
  C   C23       1.0  0.37972  0.22415  0.95273  1.0000
  C   C24       1.0  0.62028  0.77585  0.04727  1.0000
  C   C25       1.0  0.65436  0.32615  0.98780  1.0000
  C   C26       1.0  0.34563  0.67385  0.01219  1.0000
  C   C27       1.0  0.77819  0.25336  0.20716  1.0000
  C   C28       1.0  0.22181  0.74665  0.79283  1.0000
  C   C29       1.0  0.19191  0.08029  0.03458  1.0000
  C   C30       1.0  0.80809  0.91970  0.96543  1.0000
  C   C31       1.0  0.58054  0.36108  0.87697  1.0000
  C   C32       1.0  0.41945  0.63892  0.12302  1.0000
  C   C33       1.0  0.85035  0.33982  0.11975  1.0000
  C   C34       1.0  0.14964  0.66018  0.88024  1.0000
  C   C35       1.0  0.44749  0.31304  0.86070  1.0000
  C   C36       1.0  0.55250  0.68696  0.13930  1.0000
  N   N1        1.0  0.39652  0.10061  0.15467  1.0000
  N   N2        1.0  0.60348  0.89939  0.84533  1.0000
  N   N3        1.0  0.65145  0.20498  0.18806  1.0000
  N   N4        1.0  0.34855  0.79502  0.81193  1.0000
  O   O1        1.0  0.93124  0.53214  0.34850  1.0000
  O   O2        1.0  0.06877  0.46786  0.65149  1.0000
  O   O3        1.0  0.67321  0.08359  0.44164  1.0000
  O   O4        1.0  0.32680  0.91640  0.55836  1.0000
  O   O5        1.0  0.29814  0.15838  0.37392  1.0000
  O   O6        1.0  0.70187  0.84162  0.62607  1.0000
  O   O7        1.0  0.69439  0.83961  0.33386  1.0000
  O   O8        1.0  0.30562  0.16039  0.66614  1.0000
  O   O9        1.0  0.51533  0.73079  0.44267  1.0000
  O   O10       1.0  0.48468  0.26922  0.55733  1.0000
  O   O11       1.0  0.22553  0.40632  0.24150  1.0000
  O   O12       1.0  0.77447  0.59368  0.75849  1.0000
