data_image0
_chemical_formula_structural       Cd4H16C20N8O20
_chemical_formula_sum              "Cd4 H16 C20 N8 O20"
_cell_length_a       6.45414
_cell_length_b       10.068
_cell_length_c       10.596
_cell_angle_alpha    89.9999
_cell_angle_beta     104.871
_cell_angle_gamma    89.9997

_space_group_name_H-M_alt    "P 1"
_space_group_IT_number       1

loop_
  _space_group_symop_operation_xyz
  'x, y, z'

loop_
  _atom_site_type_symbol
  _atom_site_label
  _atom_site_symmetry_multiplicity
  _atom_site_fract_x
  _atom_site_fract_y
  _atom_site_fract_z
  _atom_site_occupancy
  Cd  Cd1       1.0  0.12516  0.57079  0.16812  1.0000
  Cd  Cd2       1.0  0.37485  0.07079  0.33188  1.0000
  Cd  Cd3       1.0  0.87484  0.42920  0.83188  1.0000
  Cd  Cd4       1.0  0.62515  0.92921  0.66812  1.0000
  H   H1        1.0  0.35640  0.62895  0.96890  1.0000
  H   H2        1.0  0.14360  0.12895  0.53110  1.0000
  H   H3        1.0  0.64360  0.37104  0.03110  1.0000
  H   H4        1.0  0.85640  0.87104  0.46890  1.0000
  H   H5        1.0  0.54135  0.62735  0.10631  1.0000
  H   H6        1.0  0.95865  0.12736  0.39368  1.0000
  H   H7        1.0  0.45865  0.37264  0.89368  1.0000
  H   H8        1.0  0.04135  0.87265  0.60632  1.0000
  H   H9        1.0  0.23810  0.42630  0.66714  1.0000
  H   H10       1.0  0.26191  0.92629  0.83287  1.0000
  H   H11       1.0  0.76190  0.57370  0.33286  1.0000
  H   H12       1.0  0.73810  0.07370  0.16714  1.0000
  H   H13       1.0  0.19361  0.33938  0.43588  1.0000
  H   H14       1.0  0.30640  0.83938  0.06413  1.0000
  H   H15       1.0  0.80640  0.66063  0.56412  1.0000
  H   H16       1.0  0.69361  0.16063  0.93588  1.0000
  C   C1        1.0  0.22482  0.44245  0.46530  1.0000
  C   C2        1.0  0.27518  0.94245  0.03471  1.0000
  C   C3        1.0  0.77518  0.55755  0.53470  1.0000
  C   C4        1.0  0.72482  0.05755  0.96530  1.0000
  C   C5        1.0  0.27766  0.65700  0.46313  1.0000
  C   C6        1.0  0.22233  0.15699  0.03687  1.0000
  C   C7        1.0  0.72233  0.34301  0.53687  1.0000
  C   C8        1.0  0.77767  0.84301  0.96313  1.0000
  C   C9        1.0  0.28293  0.62174  0.59160  1.0000
  C   C10       1.0  0.21707  0.12173  0.90840  1.0000
  C   C11       1.0  0.71707  0.37827  0.40839  1.0000
  C   C12       1.0  0.78293  0.87826  0.09161  1.0000
  C   C13       1.0  0.30902  0.78207  0.39632  1.0000
  C   C14       1.0  0.19097  0.28207  0.10367  1.0000
  C   C15       1.0  0.69098  0.21793  0.60367  1.0000
  C   C16       1.0  0.80902  0.71794  0.89632  1.0000
  C   C17       1.0  0.29350  0.69397  0.71561  1.0000
  C   C18       1.0  0.20651  0.19397  0.78439  1.0000
  C   C19       1.0  0.70649  0.30603  0.28439  1.0000
  C   C20       1.0  0.79350  0.80602  0.21561  1.0000
  N   N1        1.0  0.23870  0.54367  0.38695  1.0000
  N   N2        1.0  0.26129  0.04367  0.11305  1.0000
  N   N3        1.0  0.76130  0.45633  0.61306  1.0000
  N   N4        1.0  0.73871  0.95633  0.88695  1.0000
  N   N5        1.0  0.25086  0.48620  0.58842  1.0000
  N   N6        1.0  0.24914  0.98620  0.91159  1.0000
  N   N7        1.0  0.74913  0.51379  0.41158  1.0000
  N   N8        1.0  0.75087  0.01380  0.08842  1.0000
  O   O1        1.0  0.25450  0.78356  0.27328  1.0000
  O   O2        1.0  0.24549  0.28356  0.22672  1.0000
  O   O3        1.0  0.74549  0.21645  0.72672  1.0000
  O   O4        1.0  0.75450  0.71645  0.77328  1.0000
  O   O5        1.0  0.38617  0.63519  0.06634  1.0000
  O   O6        1.0  0.11383  0.13520  0.43366  1.0000
  O   O7        1.0  0.61383  0.36481  0.93366  1.0000
  O   O8        1.0  0.88617  0.86481  0.56634  1.0000
  O   O9        1.0  0.39239  0.88420  0.46356  1.0000
  O   O10       1.0  0.10761  0.38419  0.03643  1.0000
  O   O11       1.0  0.60762  0.11580  0.53643  1.0000
  O   O12       1.0  0.89239  0.61580  0.96357  1.0000
  O   O13       1.0  0.30431  0.82186  0.71493  1.0000
  O   O14       1.0  0.19570  0.32186  0.78507  1.0000
  O   O15       1.0  0.69569  0.17815  0.28507  1.0000
  O   O16       1.0  0.80430  0.67814  0.21493  1.0000
  O   O17       1.0  0.28086  0.62248  0.81081  1.0000
  O   O18       1.0  0.21916  0.12248  0.68919  1.0000
  O   O19       1.0  0.71912  0.37752  0.18919  1.0000
  O   O20       1.0  0.78085  0.87751  0.31081  1.0000
