data_image0
_chemical_formula_structural       Rb4H16C16O12
_chemical_formula_sum              "Rb4 H16 C16 O12"
_cell_length_a       3.89894
_cell_length_b       11.8343
_cell_length_c       12.7182
_cell_angle_alpha    111.667
_cell_angle_beta     89.9998
_cell_angle_gamma    90.0001

_space_group_name_H-M_alt    "P 1"
_space_group_IT_number       1

loop_
  _space_group_symop_operation_xyz
  'x, y, z'

loop_
  _atom_site_type_symbol
  _atom_site_label
  _atom_site_symmetry_multiplicity
  _atom_site_fract_x
  _atom_site_fract_y
  _atom_site_fract_z
  _atom_site_occupancy
  Rb  Rb1       1.0  0.76717  0.17476  0.64385  1.0000
  Rb  Rb2       1.0  0.26717  0.32524  0.35615  1.0000
  Rb  Rb3       1.0  0.23283  0.82524  0.35615  1.0000
  Rb  Rb4       1.0  0.73284  0.67476  0.64385  1.0000
  H   H1        1.0  0.27514  0.31294  0.86565  1.0000
  H   H2        1.0  0.77515  0.18706  0.13435  1.0000
  H   H3        1.0  0.72485  0.68706  0.13435  1.0000
  H   H4        1.0  0.22487  0.81293  0.86565  1.0000
  H   H5        1.0  0.90800  0.67836  0.94488  1.0000
  H   H6        1.0  0.40802  0.82164  0.05512  1.0000
  H   H7        1.0  0.09199  0.32164  0.05512  1.0000
  H   H8        1.0  0.59198  0.17836  0.94488  1.0000
  H   H9        1.0  0.06781  0.10138  0.39591  1.0000
  H   H10       1.0  0.56780  0.39862  0.60409  1.0000
  H   H11       1.0  0.93220  0.89862  0.60409  1.0000
  H   H12       1.0  0.43220  0.60138  0.39591  1.0000
  H   H13       1.0  0.46639  0.10433  0.40348  1.0000
  H   H14       1.0  0.96638  0.39568  0.59652  1.0000
  H   H15       1.0  0.53362  0.89568  0.59652  1.0000
  H   H16       1.0  0.03362  0.60433  0.40348  1.0000
  C   C1        1.0  0.21317  0.49321  0.77848  1.0000
  C   C2        1.0  0.71317  0.00680  0.22151  1.0000
  C   C3        1.0  0.78683  0.50680  0.22151  1.0000
  C   C4        1.0  0.28683  0.99320  0.77849  1.0000
  C   C5        1.0  0.10528  0.49581  0.89280  1.0000
  C   C6        1.0  0.60529  0.00419  0.10721  1.0000
  C   C7        1.0  0.89470  0.50419  0.10720  1.0000
  C   C8        1.0  0.39471  0.99581  0.89280  1.0000
  C   C9        1.0  0.15448  0.39510  0.92421  1.0000
  C   C10       1.0  0.65449  0.10490  0.07579  1.0000
  C   C11       1.0  0.84551  0.60490  0.07579  1.0000
  C   C12       1.0  0.34552  0.89510  0.92421  1.0000
  C   C13       1.0  0.94943  0.60060  0.96971  1.0000
  C   C14       1.0  0.44944  0.89940  0.03029  1.0000
  C   C15       1.0  0.05055  0.39940  0.03029  1.0000
  C   C16       1.0  0.55056  0.10059  0.96971  1.0000
  O   O1        1.0  0.27479  0.38779  0.70041  1.0000
  O   O2        1.0  0.77480  0.11222  0.29959  1.0000
  O   O3        1.0  0.72521  0.61222  0.29959  1.0000
  O   O4        1.0  0.22520  0.88778  0.70041  1.0000
  O   O5        1.0  0.23084  0.59183  0.76207  1.0000
  O   O6        1.0  0.73083  0.90817  0.23793  1.0000
  O   O7        1.0  0.76917  0.40817  0.23793  1.0000
  O   O8        1.0  0.26916  0.09183  0.76207  1.0000
  O   O9        1.0  0.26036  0.10459  0.44925  1.0000
  O   O10       1.0  0.76036  0.39541  0.55075  1.0000
  O   O11       1.0  0.73964  0.89541  0.55075  1.0000
  O   O12       1.0  0.23964  0.60460  0.44925  1.0000
