data_image0
_chemical_formula_structural       SnH20C22O4F8
_chemical_formula_sum              "Sn1 H20 C22 O4 F8"
_cell_length_a       4.9726
_cell_length_b       9.86554
_cell_length_c       12.1147
_cell_angle_alpha    100.036
_cell_angle_beta     98.2485
_cell_angle_gamma    97.1665

_space_group_name_H-M_alt    "P 1"
_space_group_IT_number       1

loop_
  _space_group_symop_operation_xyz
  'x, y, z'

loop_
  _atom_site_type_symbol
  _atom_site_label
  _atom_site_symmetry_multiplicity
  _atom_site_fract_x
  _atom_site_fract_y
  _atom_site_fract_z
  _atom_site_occupancy
  Sn  Sn1       1.0  0.65370  0.24277  0.03688  1.0000
  H   H1        1.0  0.46324  0.29495  0.39632  1.0000
  H   H2        1.0  0.39257  0.93660  0.80720  1.0000
  H   H3        1.0  0.44413  0.34702  0.86443  1.0000
  H   H4        1.0  0.37880  0.44565  0.99298  1.0000
  H   H5        1.0  0.93177  0.47305  0.90370  1.0000
  H   H6        1.0  0.86895  0.57210  0.03084  1.0000
  H   H7        1.0  0.57320  0.57052  0.79003  1.0000
  H   H8        1.0  0.49209  0.66464  0.91521  1.0000
  H   H9        1.0  0.80311  0.81548  0.82155  1.0000
  H   H10       1.0  0.05853  0.70819  0.84040  1.0000
  H   H11       1.0  0.96182  0.80764  0.96099  1.0000
  H   H12       1.0  0.93051  0.04141  0.08200  1.0000
  H   H13       1.0  0.84922  0.13386  0.20979  1.0000
  H   H14       1.0  0.44091  0.91213  0.03263  1.0000
  H   H15       1.0  0.36179  0.00660  0.15785  1.0000
  H   H16       1.0  0.79049  0.80864  0.14866  1.0000
  H   H17       1.0  0.71815  0.90561  0.27442  1.0000
  H   H18       1.0  0.45959  0.66580  0.23986  1.0000
  H   H19       1.0  0.30721  0.68022  0.10160  1.0000
  H   H20       1.0  0.22174  0.78319  0.22282  1.0000
  C   C1        1.0  0.24554  0.36534  0.20207  1.0000
  C   C2        1.0  0.19037  0.41861  0.31906  1.0000
  C   C3        1.0  0.01405  0.51648  0.34035  1.0000
  C   C4        1.0  0.97189  0.56546  0.45080  1.0000
  C   C5        1.0  0.10343  0.51588  0.54166  1.0000
  C   C6        1.0  0.27940  0.41807  0.52058  1.0000
  C   C7        1.0  0.32424  0.37058  0.41154  1.0000
  C   C8        1.0  0.05931  0.11899  0.86984  1.0000
  C   C9        1.0  0.11252  0.07068  0.75169  1.0000
  C   C10       1.0  0.98494  0.11636  0.65724  1.0000
  C   C11       1.0  0.03028  0.06357  0.54803  1.0000
  C   C12       1.0  0.20482  0.96447  0.53178  1.0000
  C   C13       1.0  0.33329  0.91940  0.62616  1.0000
  C   C14       1.0  0.29014  0.97203  0.73440  1.0000
  C   C15       1.0  0.53982  0.40443  0.95007  1.0000
  C   C16       1.0  0.77049  0.51853  0.94444  1.0000
  C   C17       1.0  0.66240  0.62456  0.87744  1.0000
  C   C18       1.0  0.88322  0.74571  0.87523  1.0000
  C   C19       1.0  0.76303  0.07951  0.12225  1.0000
  C   C20       1.0  0.53013  0.96337  0.12079  1.0000
  C   C21       1.0  0.62560  0.85402  0.18666  1.0000
  C   C22       1.0  0.39101  0.73942  0.18783  1.0000
  O   O1        1.0  0.06893  0.36836  0.11584  1.0000
  O   O2        1.0  0.47401  0.32090  0.19759  1.0000
  O   O3        1.0  0.24165  0.11190  0.95298  1.0000
  O   O4        1.0  0.82783  0.15812  0.87840  1.0000
  F   F1        1.0  0.88518  0.57181  0.25742  1.0000
  F   F2        1.0  0.80588  0.66206  0.47026  1.0000
  F   F3        1.0  0.06095  0.56269  0.64784  1.0000
  F   F4        1.0  0.40524  0.37083  0.61007  1.0000
  F   F5        1.0  0.82038  0.21518  0.66674  1.0000
  F   F6        1.0  0.90601  0.10898  0.45756  1.0000
  F   F7        1.0  0.24859  0.91394  0.42634  1.0000
  F   F8        1.0  0.50141  0.82220  0.60872  1.0000
