data_image0
_chemical_formula_structural       V2H14C14N2Cl6
_chemical_formula_sum              "V2 H14 C14 N2 Cl6"
_cell_length_a       5.80081
_cell_length_b       9.83701
_cell_length_c       10.0723
_cell_angle_alpha    111.761
_cell_angle_beta     103.153
_cell_angle_gamma    104.875

_space_group_name_H-M_alt    "P 1"
_space_group_IT_number       1

loop_
  _space_group_symop_operation_xyz
  'x, y, z'

loop_
  _atom_site_type_symbol
  _atom_site_label
  _atom_site_symmetry_multiplicity
  _atom_site_fract_x
  _atom_site_fract_y
  _atom_site_fract_z
  _atom_site_occupancy
  V   V1        1.0  0.81392  0.63841  0.52343  1.0000
  V   V2        1.0  0.18612  0.36160  0.47658  1.0000
  H   H1        1.0  0.41655  0.88163  0.54767  1.0000
  H   H2        1.0  0.58348  0.11837  0.45232  1.0000
  H   H3        1.0  0.36233  0.12859  0.69558  1.0000
  H   H4        1.0  0.63767  0.87140  0.30441  1.0000
  H   H5        1.0  0.07743  0.28014  0.05613  1.0000
  H   H6        1.0  0.92255  0.71986  0.94388  1.0000
  H   H7        1.0  0.13651  0.03402  0.90677  1.0000
  H   H8        1.0  0.86349  0.96598  0.09324  1.0000
  H   H9        1.0  0.49844  0.34185  0.99619  1.0000
  H   H10       1.0  0.50151  0.65811  0.00379  1.0000
  H   H11       1.0  0.66720  0.43779  0.91094  1.0000
  H   H12       1.0  0.33275  0.56220  0.08906  1.0000
  H   H13       1.0  0.83462  0.44527  0.08692  1.0000
  H   H14       1.0  0.16533  0.55472  0.91308  1.0000
  C   C1        1.0  0.78005  0.94234  0.71808  1.0000
  C   C2        1.0  0.21997  0.05767  0.28192  1.0000
  C   C3        1.0  0.56068  0.96988  0.65859  1.0000
  C   C4        1.0  0.43934  0.03012  0.34140  1.0000
  C   C5        1.0  0.53147  0.10781  0.74254  1.0000
  C   C6        1.0  0.46853  0.89218  0.25745  1.0000
  C   C7        1.0  0.71582  0.22175  0.88684  1.0000
  C   C8        1.0  0.28417  0.77825  0.11316  1.0000
  C   C9        1.0  0.93336  0.19315  0.94421  1.0000
  C   C10       1.0  0.06663  0.80685  0.05579  1.0000
  C   C11       1.0  0.96824  0.05621  0.86198  1.0000
  C   C12       1.0  0.03176  0.94379  0.13802  1.0000
  C   C13       1.0  0.67937  0.36964  0.97577  1.0000
  C   C14       1.0  0.32060  0.63034  0.02422  1.0000
  N   N1        1.0  0.80536  0.80571  0.63654  1.0000
  N   N2        1.0  0.19468  0.19430  0.36346  1.0000
  Cl  Cl1       1.0  0.37752  0.51517  0.35573  1.0000
  Cl  Cl2       1.0  0.62252  0.48484  0.64428  1.0000
  Cl  Cl3       1.0  0.92858  0.71094  0.35773  1.0000
  Cl  Cl4       1.0  0.07144  0.28908  0.64228  1.0000
  Cl  Cl5       1.0  0.19210  0.65341  0.66387  1.0000
  Cl  Cl6       1.0  0.80793  0.34661  0.33615  1.0000
