data_image0
_chemical_formula_structural       Y2H32C16Cl6O4
_chemical_formula_sum              "Y2 H32 C16 Cl6 O4"
_cell_length_a       8.10207
_cell_length_b       8.40429
_cell_length_c       9.7483
_cell_angle_alpha    81.1489
_cell_angle_beta     69.2959
_cell_angle_gamma    82.0766

_space_group_name_H-M_alt    "P 1"
_space_group_IT_number       1

loop_
  _space_group_symop_operation_xyz
  'x, y, z'

loop_
  _atom_site_type_symbol
  _atom_site_label
  _atom_site_symmetry_multiplicity
  _atom_site_fract_x
  _atom_site_fract_y
  _atom_site_fract_z
  _atom_site_occupancy
  Y   Y1        1.0  0.99921  0.76062  0.92715  1.0000
  Y   Y2        1.0  0.00079  0.23938  0.07284  1.0000
  H   H1        1.0  0.66402  0.76235  0.77755  1.0000
  H   H2        1.0  0.33597  0.23764  0.22244  1.0000
  H   H3        1.0  0.70874  0.97020  0.74946  1.0000
  H   H4        1.0  0.29126  0.02979  0.25054  1.0000
  H   H5        1.0  0.80562  0.96859  0.47898  1.0000
  H   H6        1.0  0.19440  0.03141  0.52101  1.0000
  H   H7        1.0  0.63122  0.83908  0.54072  1.0000
  H   H8        1.0  0.36877  0.16091  0.45926  1.0000
  H   H9        1.0  0.84074  0.59801  0.53941  1.0000
  H   H10       1.0  0.15926  0.40198  0.46060  1.0000
  H   H11       1.0  0.96172  0.71757  0.37642  1.0000
  H   H12       1.0  0.03830  0.28243  0.62356  1.0000
  H   H13       1.0  0.10026  0.61617  0.60101  1.0000
  H   H14       1.0  0.89974  0.38382  0.39900  1.0000
  H   H15       1.0  0.13451  0.81196  0.50030  1.0000
  H   H16       1.0  0.86550  0.18804  0.49970  1.0000
  H   H17       1.0  0.77378  0.83126  0.24387  1.0000
  H   H18       1.0  0.22624  0.16871  0.75612  1.0000
  H   H19       1.0  0.57822  0.93734  0.21975  1.0000
  H   H20       1.0  0.42181  0.06266  0.78025  1.0000
  H   H21       1.0  0.45517  0.73819  0.43896  1.0000
  H   H22       1.0  0.54482  0.26183  0.56105  1.0000
  H   H23       1.0  0.62420  0.58654  0.35969  1.0000
  H   H24       1.0  0.37578  0.41346  0.64032  1.0000
  H   H25       1.0  0.39903  0.51902  0.27886  1.0000
  H   H26       1.0  0.60095  0.48100  0.72114  1.0000
  H   H27       1.0  0.30520  0.72234  0.26576  1.0000
  H   H28       1.0  0.69481  0.27770  0.73424  1.0000
  H   H29       1.0  0.47980  0.75208  0.01835  1.0000
  H   H30       1.0  0.52019  0.24793  0.98165  1.0000
  H   H31       1.0  0.60544  0.56079  0.03601  1.0000
  H   H32       1.0  0.39454  0.43922  0.96400  1.0000
  C   C1        1.0  0.75019  0.85365  0.70461  1.0000
  C   C2        1.0  0.24981  0.14634  0.29540  1.0000
  C   C3        1.0  0.76060  0.85501  0.54608  1.0000
  C   C4        1.0  0.23940  0.14498  0.45391  1.0000
  C   C5        1.0  0.90008  0.71339  0.49660  1.0000
  C   C6        1.0  0.09993  0.28661  0.50339  1.0000
  C   C7        1.0  0.03379  0.73079  0.56891  1.0000
  C   C8        1.0  0.96621  0.26921  0.43110  1.0000
  C   C9        1.0  0.65049  0.81715  0.22626  1.0000
  C   C10       1.0  0.34951  0.18284  0.77374  1.0000
  C   C11       1.0  0.53833  0.69168  0.33477  1.0000
  C   C12       1.0  0.46165  0.30833  0.66524  1.0000
  C   C13       1.0  0.42999  0.64520  0.24800  1.0000
  C   C14       1.0  0.57000  0.35482  0.75201  1.0000
  C   C15       1.0  0.54854  0.67288  0.08584  1.0000
  C   C16       1.0  0.45145  0.32713  0.91416  1.0000
  Cl  Cl1       1.0  0.88775  0.08140  0.89628  1.0000
  Cl  Cl2       1.0  0.11225  0.91859  0.10373  1.0000
  Cl  Cl3       1.0  0.93319  0.47019  0.86771  1.0000
  Cl  Cl4       1.0  0.06680  0.52981  0.13230  1.0000
  Cl  Cl5       1.0  0.31797  0.74751  0.75003  1.0000
  Cl  Cl6       1.0  0.68203  0.25250  0.24997  1.0000
  O   O1        1.0  0.93179  0.80688  0.70364  1.0000
  O   O2        1.0  0.06821  0.19311  0.29637  1.0000
  O   O3        1.0  0.69927  0.75377  0.08426  1.0000
  O   O4        1.0  0.30073  0.24623  0.91574  1.0000
