data_image0
_chemical_formula_structural       CuH8C14N4O4F4
_chemical_formula_sum              "Cu1 H8 C14 N4 O4 F4"
_cell_length_a       7.25705
_cell_length_b       7.27227
_cell_length_c       7.44553
_cell_angle_alpha    87.2905
_cell_angle_beta     77.1289
_cell_angle_gamma    80.3972

_space_group_name_H-M_alt    "P 1"
_space_group_IT_number       1

loop_
  _space_group_symop_operation_xyz
  'x, y, z'

loop_
  _atom_site_type_symbol
  _atom_site_label
  _atom_site_symmetry_multiplicity
  _atom_site_fract_x
  _atom_site_fract_y
  _atom_site_fract_z
  _atom_site_occupancy
  Cu  Cu1       1.0  0.00000  1.00000  0.50001  1.0000
  H   H1        1.0  0.86155  0.76530  0.86138  1.0000
  H   H2        1.0  0.13846  0.23469  0.13863  1.0000
  H   H3        1.0  0.38347  0.80913  0.00778  1.0000
  H   H4        1.0  0.61652  0.19087  0.99222  1.0000
  H   H5        1.0  0.38504  0.96399  0.66006  1.0000
  H   H6        1.0  0.61495  0.03601  0.33995  1.0000
  H   H7        1.0  0.05486  0.70727  0.11371  1.0000
  H   H8        1.0  0.94514  0.29273  0.88629  1.0000
  C   C1        1.0  0.00281  0.79962  0.85204  1.0000
  C   C2        1.0  0.99719  0.20038  0.14795  1.0000
  C   C3        1.0  0.27617  0.82563  0.92550  1.0000
  C   C4        1.0  0.72383  0.17436  0.07451  1.0000
  C   C5        1.0  0.27501  0.90187  0.75357  1.0000
  C   C6        1.0  0.72499  0.09813  0.24644  1.0000
  C   C7        1.0  0.18281  0.28879  0.53661  1.0000
  C   C8        1.0  0.81719  0.71121  0.46339  1.0000
  C   C9        1.0  0.34496  0.39933  0.51583  1.0000
  C   C10       1.0  0.65504  0.60068  0.48416  1.0000
  C   C11       1.0  0.41931  0.48597  0.35085  1.0000
  C   C12       1.0  0.58069  0.51403  0.64914  1.0000
  C   C13       1.0  0.57043  0.58485  0.33608  1.0000
  C   C14       1.0  0.42958  0.41516  0.66391  1.0000
  N   N1        1.0  0.10298  0.88541  0.70913  1.0000
  N   N2        1.0  0.89702  0.11459  0.29087  1.0000
  N   N3        1.0  0.10404  0.76185  0.98432  1.0000
  N   N4        1.0  0.89596  0.23815  0.01569  1.0000
  O   O1        1.0  0.21893  0.14668  0.43057  1.0000
  O   O2        1.0  0.78107  0.85332  0.56944  1.0000
  O   O3        1.0  0.03207  0.33696  0.65388  1.0000
  O   O4        1.0  0.96793  0.66304  0.34612  1.0000
  F   F1        1.0  0.34683  0.47332  0.20025  1.0000
  F   F2        1.0  0.65317  0.52669  0.79974  1.0000
  F   F3        1.0  0.63424  0.66998  0.17264  1.0000
  F   F4        1.0  0.36576  0.33002  0.82735  1.0000
