data_image0
_chemical_formula_structural       CuH28C36N8O4F4
_chemical_formula_sum              "Cu1 H28 C36 N8 O4 F4"
_cell_length_a       8.24869
_cell_length_b       9.41269
_cell_length_c       11.8156
_cell_angle_alpha    108.376
_cell_angle_beta     103.977
_cell_angle_gamma    91.4036

_space_group_name_H-M_alt    "P 1"
_space_group_IT_number       1

loop_
  _space_group_symop_operation_xyz
  'x, y, z'

loop_
  _atom_site_type_symbol
  _atom_site_label
  _atom_site_symmetry_multiplicity
  _atom_site_fract_x
  _atom_site_fract_y
  _atom_site_fract_z
  _atom_site_occupancy
  Cu  Cu1       1.0  0.50000  1.00000  0.49999  1.0000
  H   H1        1.0  0.85537  0.03805  0.45227  1.0000
  H   H2        1.0  0.14463  0.96188  0.54775  1.0000
  H   H3        1.0  0.10841  0.37339  0.89520  1.0000
  H   H4        1.0  0.89157  0.62659  0.10479  1.0000
  H   H5        1.0  0.91493  0.45374  0.88923  1.0000
  H   H6        1.0  0.08504  0.54623  0.11075  1.0000
  H   H7        1.0  0.68165  0.26459  0.76295  1.0000
  H   H8        1.0  0.31831  0.73544  0.23700  1.0000
  H   H9        1.0  0.33844  0.49326  0.87513  1.0000
  H   H10       1.0  0.66154  0.50675  0.12488  1.0000
  H   H11       1.0  0.29762  0.83574  0.70164  1.0000
  H   H12       1.0  0.70235  0.16429  0.29839  1.0000
  H   H13       1.0  0.11385  0.25092  0.62603  1.0000
  H   H14       1.0  0.88619  0.74899  0.37399  1.0000
  H   H15       1.0  0.98892  0.80163  0.66140  1.0000
  H   H16       1.0  0.01104  0.19838  0.33861  1.0000
  H   H17       1.0  0.47388  0.68339  0.81275  1.0000
  H   H18       1.0  0.52608  0.31664  0.18730  1.0000
  H   H19       1.0  0.74549  0.49700  0.70349  1.0000
  H   H20       1.0  0.25447  0.50298  0.29650  1.0000
  H   H21       1.0  0.76341  0.68224  0.80769  1.0000
  H   H22       1.0  0.23656  0.31773  0.19230  1.0000
  H   H23       1.0  0.58443  0.66904  0.33952  1.0000
  H   H24       1.0  0.41553  0.33095  0.66048  1.0000
  H   H25       1.0  0.73122  0.47826  0.46521  1.0000
  H   H26       1.0  0.26872  0.52172  0.53479  1.0000
  H   H27       1.0  0.65278  0.88367  0.72236  1.0000
  H   H28       1.0  0.34719  0.11632  0.27764  1.0000
  C   C1        1.0  0.86003  0.11548  0.54319  1.0000
  C   C2        1.0  0.13999  0.88447  0.45682  1.0000
  C   C3        1.0  0.48128  0.07860  0.91316  1.0000
  C   C4        1.0  0.51885  0.92144  0.08685  1.0000
  C   C5        1.0  0.00949  0.41610  0.83786  1.0000
  C   C6        1.0  0.99049  0.58388  0.16213  1.0000
  C   C7        1.0  0.45967  0.15369  0.81342  1.0000
  C   C8        1.0  0.54040  0.84633  0.18655  1.0000
  C   C9        1.0  0.76273  0.22863  0.70112  1.0000
  C   C10       1.0  0.23724  0.77138  0.29885  1.0000
  C   C11       1.0  0.63179  0.02391  0.95394  1.0000
  C   C12       1.0  0.36837  0.97617  0.04609  1.0000
  C   C13       1.0  0.64995  0.94582  0.03777  1.0000
  C   C14       1.0  0.35020  0.05425  0.96227  1.0000
  C   C15       1.0  0.26130  0.56190  0.82931  1.0000
  C   C16       1.0  0.73867  0.43811  0.17070  1.0000
  C   C17       1.0  0.08617  0.54010  0.80480  1.0000
  C   C18       1.0  0.91381  0.45989  0.19520  1.0000
  C   C19       1.0  0.23935  0.75242  0.73053  1.0000
  C   C20       1.0  0.76062  0.24761  0.26949  1.0000
  C   C21       1.0  0.98728  0.21996  0.62769  1.0000
  C   C22       1.0  0.01274  0.77998  0.37232  1.0000
  C   C23       1.0  0.06476  0.73309  0.70806  1.0000
  C   C24       1.0  0.93519  0.26691  0.29194  1.0000
  C   C25       1.0  0.33736  0.66753  0.79253  1.0000
  C   C26       1.0  0.66261  0.33250  0.20749  1.0000
  C   C27       1.0  0.98648  0.62836  0.74496  1.0000
  C   C28       1.0  0.01348  0.37162  0.25503  1.0000
  C   C29       1.0  0.79698  0.61355  0.72390  1.0000
  C   C30       1.0  0.20298  0.38643  0.27610  1.0000
  C   C31       1.0  0.61875  0.68382  0.43772  1.0000
  C   C32       1.0  0.38120  0.31617  0.56228  1.0000
  C   C33       1.0  0.69090  0.58901  0.49861  1.0000
  C   C34       1.0  0.30905  0.41098  0.50139  1.0000
  C   C35       1.0  0.65195  0.79989  0.63501  1.0000
  C   C36       1.0  0.34801  0.20010  0.36498  1.0000
  N   N1        1.0  0.72186  0.12229  0.59031  1.0000
  N   N2        1.0  0.27813  0.87770  0.40967  1.0000
  N   N3        1.0  0.92343  0.29027  0.72670  1.0000
  N   N4        1.0  0.07657  0.70971  0.27329  1.0000
  N   N5        1.0  0.59589  0.81468  0.52450  1.0000
  N   N6        1.0  0.40407  0.18531  0.47550  1.0000
  N   N7        1.0  0.71014  0.66377  0.62302  1.0000
  N   N8        1.0  0.28982  0.33621  0.37698  1.0000
  O   O1        1.0  0.41721  0.06266  0.70369  1.0000
  O   O2        1.0  0.58278  0.93736  0.29628  1.0000
  O   O3        1.0  0.49064  0.29476  0.84996  1.0000
  O   O4        1.0  0.50939  0.70525  0.15000  1.0000
  F   F1        1.0  0.76645  0.04774  0.91090  1.0000
  F   F2        1.0  0.23368  0.95232  0.08908  1.0000
  F   F3        1.0  0.80083  0.89442  0.07382  1.0000
  F   F4        1.0  0.19930  0.10563  0.92621  1.0000
