data_image0
_chemical_formula_structural       Li4Mn2H24C32O20
_chemical_formula_sum              "Li4 Mn2 H24 C32 O20"
_cell_length_a       9.84835
_cell_length_b       9.84837
_cell_length_c       10.2686
_cell_angle_alpha    70.3415
_cell_angle_beta     70.342
_cell_angle_gamma    63.9328

_space_group_name_H-M_alt    "P 1"
_space_group_IT_number       1

loop_
  _space_group_symop_operation_xyz
  'x, y, z'

loop_
  _atom_site_type_symbol
  _atom_site_label
  _atom_site_symmetry_multiplicity
  _atom_site_fract_x
  _atom_site_fract_y
  _atom_site_fract_z
  _atom_site_occupancy
  Li  Li1       1.0  0.55390  0.26468  0.06746  1.0000
  Li  Li2       1.0  0.73532  0.44610  0.43254  1.0000
  Li  Li3       1.0  0.44610  0.73532  0.93254  1.0000
  Li  Li4       1.0  0.26468  0.55390  0.56746  1.0000
  Mn  Mn1       1.0  0.41715  0.58285  0.25000  1.0000
  Mn  Mn2       1.0  0.58285  0.41715  0.75000  1.0000
  H   H1        1.0  0.55811  0.97651  0.11409  1.0000
  H   H2        1.0  0.02349  0.44189  0.38591  1.0000
  H   H3        1.0  0.44189  0.02349  0.88590  1.0000
  H   H4        1.0  0.97651  0.55811  0.61409  1.0000
  H   H5        1.0  0.62417  0.05755  0.96005  1.0000
  H   H6        1.0  0.94245  0.37583  0.53995  1.0000
  H   H7        1.0  0.37583  0.94245  0.03995  1.0000
  H   H8        1.0  0.05755  0.62417  0.46005  1.0000
  H   H9        1.0  0.42968  0.09191  0.26078  1.0000
  H   H10       1.0  0.90809  0.57032  0.23922  1.0000
  H   H11       1.0  0.57032  0.90809  0.73923  1.0000
  H   H12       1.0  0.09192  0.42968  0.76078  1.0000
  H   H13       1.0  0.20356  0.83671  0.62727  1.0000
  H   H14       1.0  0.16329  0.79644  0.87273  1.0000
  H   H15       1.0  0.79643  0.16329  0.37273  1.0000
  H   H16       1.0  0.83672  0.20356  0.12728  1.0000
  H   H17       1.0  0.15886  0.02407  0.76738  1.0000
  H   H18       1.0  0.97593  0.84114  0.73262  1.0000
  H   H19       1.0  0.84113  0.97594  0.23262  1.0000
  H   H20       1.0  0.02408  0.15886  0.26738  1.0000
  H   H21       1.0  0.25851  0.23706  0.65374  1.0000
  H   H22       1.0  0.76294  0.74149  0.84626  1.0000
  H   H23       1.0  0.74148  0.76295  0.34626  1.0000
  H   H24       1.0  0.23707  0.25852  0.15374  1.0000
  C   C1        1.0  0.40565  0.30843  0.37759  1.0000
  C   C2        1.0  0.69156  0.59435  0.12241  1.0000
  C   C3        1.0  0.59435  0.69157  0.62241  1.0000
  C   C4        1.0  0.30844  0.40565  0.87759  1.0000
  C   C5        1.0  0.35118  0.84323  0.34721  1.0000
  C   C6        1.0  0.15677  0.64882  0.15279  1.0000
  C   C7        1.0  0.64882  0.15676  0.65279  1.0000
  C   C8        1.0  0.84323  0.35118  0.84721  1.0000
  C   C9        1.0  0.34968  0.17835  0.44912  1.0000
  C   C10       1.0  0.82165  0.65032  0.05088  1.0000
  C   C11       1.0  0.65031  0.82165  0.55088  1.0000
  C   C12       1.0  0.17835  0.34968  0.94912  1.0000
  C   C13       1.0  0.37005  0.07640  0.37148  1.0000
  C   C14       1.0  0.92360  0.62995  0.12852  1.0000
  C   C15       1.0  0.62994  0.92360  0.62853  1.0000
  C   C16       1.0  0.07641  0.37005  0.87148  1.0000
  C   C17       1.0  0.31809  0.95316  0.43443  1.0000
  C   C18       1.0  0.04684  0.68191  0.06558  1.0000
  C   C19       1.0  0.68191  0.04684  0.56557  1.0000
  C   C20       1.0  0.95316  0.31809  0.93443  1.0000
  C   C21       1.0  0.24180  0.93424  0.57787  1.0000
  C   C22       1.0  0.06575  0.75820  0.92213  1.0000
  C   C23       1.0  0.75819  0.06575  0.42214  1.0000
  C   C24       1.0  0.93426  0.24180  0.07787  1.0000
  C   C25       1.0  0.21820  0.03768  0.65588  1.0000
  C   C26       1.0  0.96232  0.78180  0.84412  1.0000
  C   C27       1.0  0.78179  0.96232  0.34411  1.0000
  C   C28       1.0  0.03769  0.21820  0.15589  1.0000
  C   C29       1.0  0.27323  0.15842  0.59253  1.0000
  C   C30       1.0  0.84158  0.72677  0.90746  1.0000
  C   C31       1.0  0.72676  0.84158  0.40746  1.0000
  C   C32       1.0  0.15843  0.27323  0.09254  1.0000
  O   O1        1.0  0.38540  0.40355  0.44788  1.0000
  O   O2        1.0  0.59645  0.61460  0.05212  1.0000
  O   O3        1.0  0.61460  0.59645  0.55212  1.0000
  O   O4        1.0  0.40356  0.38540  0.94787  1.0000
  O   O5        1.0  0.46756  0.33045  0.24454  1.0000
  O   O6        1.0  0.66955  0.53244  0.25546  1.0000
  O   O7        1.0  0.53244  0.66954  0.75546  1.0000
  O   O8        1.0  0.33046  0.46756  0.74454  1.0000
  O   O9        1.0  0.31366  0.72297  0.40654  1.0000
  O   O10       1.0  0.27703  0.68634  0.09346  1.0000
  O   O11       1.0  0.68634  0.27702  0.59346  1.0000
  O   O12       1.0  0.72298  0.31365  0.90654  1.0000
  O   O13       1.0  0.41829  0.86870  0.21695  1.0000
  O   O14       1.0  0.13130  0.58171  0.28305  1.0000
  O   O15       1.0  0.58171  0.13130  0.78305  1.0000
  O   O16       1.0  0.86870  0.41829  0.71696  1.0000
  O   O17       1.0  0.61424  0.04746  0.06132  1.0000
  O   O18       1.0  0.95254  0.38576  0.43868  1.0000
  O   O19       1.0  0.38576  0.95254  0.93868  1.0000
  O   O20       1.0  0.04746  0.61424  0.56132  1.0000
