data_image0
_chemical_formula_structural       Cd2H26C30N6O12
_chemical_formula_sum              "Cd2 H26 C30 N6 O12"
_cell_length_a       8.06999
_cell_length_b       9.16028
_cell_length_c       12.9667
_cell_angle_alpha    110.729
_cell_angle_beta     107.224
_cell_angle_gamma    89.9637

_space_group_name_H-M_alt    "P 1"
_space_group_IT_number       1

loop_
  _space_group_symop_operation_xyz
  'x, y, z'

loop_
  _atom_site_type_symbol
  _atom_site_label
  _atom_site_symmetry_multiplicity
  _atom_site_fract_x
  _atom_site_fract_y
  _atom_site_fract_z
  _atom_site_occupancy
  Cd  Cd1       1.0  0.09362  0.55745  0.67354  1.0000
  Cd  Cd2       1.0  0.90656  0.88376  0.32643  1.0000
  H   H1        1.0  0.08596  0.17152  0.60765  1.0000
  H   H2        1.0  0.91469  0.56357  0.39208  1.0000
  H   H3        1.0  0.26901  0.97825  0.66545  1.0000
  H   H4        1.0  0.73131  0.31278  0.33441  1.0000
  H   H5        1.0  0.64502  0.36671  0.92293  1.0000
  H   H6        1.0  0.35520  0.44407  0.07726  1.0000
  H   H7        1.0  0.45274  0.54465  0.84862  1.0000
  H   H8        1.0  0.54770  0.69610  0.15150  1.0000
  H   H9        1.0  0.50924  0.93085  0.78980  1.0000
  H   H10       1.0  0.49079  0.14125  0.21016  1.0000
  H   H11       1.0  0.79413  0.07425  0.15795  1.0000
  H   H12       1.0  0.20556  0.91669  0.84217  1.0000
  H   H13       1.0  0.85627  0.60254  0.08408  1.0000
  H   H14       1.0  0.14346  0.51867  0.91562  1.0000
  H   H15       1.0  0.78718  0.55085  0.87000  1.0000
  H   H16       1.0  0.21234  0.68113  0.12973  1.0000
  H   H17       1.0  0.70800  0.76592  0.80051  1.0000
  H   H18       1.0  0.29177  0.96581  0.19949  1.0000
  H   H19       1.0  0.59315  0.64581  0.54696  1.0000
  H   H20       1.0  0.40704  0.09933  0.45310  1.0000
  H   H21       1.0  0.50476  0.76975  0.40474  1.0000
  H   H22       1.0  0.49505  0.36561  0.59520  1.0000
  H   H23       1.0  0.05014  0.79291  0.56775  1.0000
  H   H24       1.0  0.94992  0.22547  0.43252  1.0000
  H   H25       1.0  0.88134  0.81898  0.60525  1.0000
  H   H26       1.0  0.11836  0.21382  0.39458  1.0000
  C   C1        1.0  0.21195  0.21080  0.67597  1.0000
  C   C2        1.0  0.78858  0.53463  0.32387  1.0000
  C   C3        1.0  0.31360  0.10320  0.70898  1.0000
  C   C4        1.0  0.68673  0.39420  0.29092  1.0000
  C   C5        1.0  0.47112  0.15712  0.80127  1.0000
  C   C6        1.0  0.52910  0.35601  0.19875  1.0000
  C   C7        1.0  0.52400  0.31972  0.85194  1.0000
  C   C8        1.0  0.47627  0.46797  0.14816  1.0000
  C   C9        1.0  0.41505  0.41798  0.81132  1.0000
  C   C10       1.0  0.58537  0.60670  0.18872  1.0000
  C   C11       1.0  0.69081  0.07953  0.94437  1.0000
  C   C12       1.0  0.30894  0.13557  0.05583  1.0000
  C   C13       1.0  0.73976  0.93830  0.97406  1.0000
  C   C14       1.0  0.25997  0.96462  0.02602  1.0000
  C   C15       1.0  0.78770  0.95886  0.09172  1.0000
  C   C16       1.0  0.21206  0.86746  0.90832  1.0000
  C   C17       1.0  0.82353  0.69569  0.04995  1.0000
  C   C18       1.0  0.17623  0.64600  0.94985  1.0000
  C   C19       1.0  0.78358  0.66663  0.93208  1.0000
  C   C20       1.0  0.21611  0.73484  0.06775  1.0000
  C   C21       1.0  0.73992  0.78920  0.89298  1.0000
  C   C22       1.0  0.25979  0.89655  0.10700  1.0000
  C   C23       1.0  0.34988  0.64678  0.58931  1.0000
  C   C24       1.0  0.65014  0.05768  0.41061  1.0000
  C   C25       1.0  0.46152  0.68059  0.52498  1.0000
  C   C26       1.0  0.53861  0.15604  0.47503  1.0000
  C   C27       1.0  0.41330  0.75016  0.44704  1.0000
  C   C28       1.0  0.58663  0.30369  0.55295  1.0000
  C   C29       1.0  0.23858  0.80089  0.40926  1.0000
  C   C30       1.0  0.76127  0.39230  0.59086  1.0000
  N   N1        1.0  0.25992  0.36734  0.72680  1.0000
  N   N2        1.0  0.74060  0.64036  0.27312  1.0000
  N   N3        1.0  0.56223  0.04679  0.83889  1.0000
  N   N4        1.0  0.43782  0.20819  0.16119  1.0000
  N   N5        1.0  0.82651  0.83975  0.12848  1.0000
  N   N6        1.0  0.17331  0.71156  0.87145  1.0000
  O   O1        1.0  0.75672  0.21308  0.01379  1.0000
  O   O2        1.0  0.24282  0.19977  0.98655  1.0000
  O   O3        1.0  0.23164  0.52953  0.53545  1.0000
  O   O4        1.0  0.76842  0.99430  0.46447  1.0000
  O   O5        1.0  0.38158  0.73459  0.69559  1.0000
  O   O6        1.0  0.61835  0.03908  0.30434  1.0000
  O   O7        1.0  0.19951  0.83501  0.31836  1.0000
  O   O8        1.0  0.80022  0.51736  0.68180  1.0000
  O   O9        1.0  0.13008  0.81090  0.46605  1.0000
  O   O10       1.0  0.86995  0.34560  0.53413  1.0000
  O   O11       1.0  0.99641  0.78430  0.62556  1.0000
  O   O12       1.0  0.00348  0.15878  0.37461  1.0000
