data_image0
_chemical_formula_structural       CuH44C28N4O4
_chemical_formula_sum              "Cu1 H44 C28 N4 O4"
_cell_length_a       8.41103
_cell_length_b       9.14701
_cell_length_c       9.20496
_cell_angle_alpha    88.7723
_cell_angle_beta     69.888
_cell_angle_gamma    84.7238

_space_group_name_H-M_alt    "P 1"
_space_group_IT_number       1

loop_
  _space_group_symop_operation_xyz
  'x, y, z'

loop_
  _atom_site_type_symbol
  _atom_site_label
  _atom_site_symmetry_multiplicity
  _atom_site_fract_x
  _atom_site_fract_y
  _atom_site_fract_z
  _atom_site_occupancy
  Cu  Cu1       1.0  1.00000  0.00000  0.00000  1.0000
  H   H1        1.0  0.15176  0.14969  0.12186  1.0000
  H   H2        1.0  0.84824  0.85031  0.87814  1.0000
  H   H3        1.0  0.29182  0.96771  0.82013  1.0000
  H   H4        1.0  0.70818  0.03229  0.17987  1.0000
  H   H5        1.0  0.12433  0.40207  0.02929  1.0000
  H   H6        1.0  0.87567  0.59794  0.97071  1.0000
  H   H7        1.0  0.99098  0.33493  0.93653  1.0000
  H   H8        1.0  0.00902  0.66507  0.06347  1.0000
  H   H9        1.0  0.35716  0.20512  0.88231  1.0000
  H   H10       1.0  0.64284  0.79489  0.11769  1.0000
  H   H11       1.0  0.31117  0.35734  0.77885  1.0000
  H   H12       1.0  0.68882  0.64267  0.22115  1.0000
  H   H13       1.0  0.36322  0.13719  0.62857  1.0000
  H   H14       1.0  0.63678  0.86281  0.37143  1.0000
  H   H15       1.0  0.12624  0.16314  0.53601  1.0000
  H   H16       1.0  0.87376  0.83686  0.46399  1.0000
  H   H17       1.0  0.14434  0.33675  0.60560  1.0000
  H   H18       1.0  0.85566  0.66325  0.39440  1.0000
  H   H19       1.0  0.98197  0.22606  0.72036  1.0000
  H   H20       1.0  0.01803  0.77394  0.27964  1.0000
  H   H21       1.0  0.05870  0.95368  0.64214  1.0000
  H   H22       1.0  0.94130  0.04632  0.35786  1.0000
  H   H23       1.0  0.80095  0.27809  0.18043  1.0000
  H   H24       1.0  0.19905  0.72191  0.81957  1.0000
  H   H25       1.0  0.03405  0.30504  0.36953  1.0000
  H   H26       1.0  0.96594  0.69496  0.63046  1.0000
  H   H27       1.0  0.97217  0.44653  0.26095  1.0000
  H   H28       1.0  0.02782  0.55347  0.73906  1.0000
  H   H29       1.0  0.79315  0.46872  0.54228  1.0000
  H   H30       1.0  0.20685  0.53128  0.45772  1.0000
  H   H31       1.0  0.66930  0.44116  0.42604  1.0000
  H   H32       1.0  0.33070  0.55883  0.57396  1.0000
  H   H33       1.0  0.58529  0.28144  0.65578  1.0000
  H   H34       1.0  0.41470  0.71856  0.34422  1.0000
  H   H35       1.0  0.79464  0.20638  0.61540  1.0000
  H   H36       1.0  0.20535  0.79361  0.38461  1.0000
  H   H37       1.0  0.36146  0.96449  0.47323  1.0000
  H   H38       1.0  0.63854  0.03551  0.52677  1.0000
  H   H39       1.0  0.42482  0.82785  0.58713  1.0000
  H   H40       1.0  0.57518  0.17215  0.41287  1.0000
  H   H41       1.0  0.65479  0.66089  0.78742  1.0000
  H   H42       1.0  0.34522  0.33910  0.21259  1.0000
  H   H43       1.0  0.22901  0.60123  0.19578  1.0000
  H   H44       1.0  0.77100  0.39877  0.80422  1.0000
  C   C1        1.0  0.10013  0.30488  0.97438  1.0000
  C   C2        1.0  0.89987  0.69512  0.02562  1.0000
  C   C3        1.0  0.25950  0.25758  0.83860  1.0000
  C   C4        1.0  0.74049  0.74242  0.16140  1.0000
  C   C5        1.0  0.23656  0.15641  0.71823  1.0000
  C   C6        1.0  0.76344  0.84359  0.28178  1.0000
  C   C7        1.0  0.11415  0.22448  0.64116  1.0000
  C   C8        1.0  0.88585  0.77552  0.35884  1.0000
  C   C9        1.0  0.16154  0.90559  0.68215  1.0000
  C   C10       1.0  0.83846  0.09441  0.31785  1.0000
  C   C11       1.0  0.90003  0.23193  0.22587  1.0000
  C   C12       1.0  0.09997  0.76807  0.77413  1.0000
  C   C13       1.0  0.93020  0.34805  0.32865  1.0000
  C   C14       1.0  0.06979  0.65195  0.67135  1.0000
  C   C15       1.0  0.76873  0.38773  0.46757  1.0000
  C   C16       1.0  0.23126  0.61226  0.53243  1.0000
  C   C17       1.0  0.70410  0.25165  0.56009  1.0000
  C   C18       1.0  0.29590  0.74834  0.43991  1.0000
  C   C19       1.0  0.32231  0.86613  0.54235  1.0000
  C   C20       1.0  0.67769  0.13386  0.45765  1.0000
  C   C21       1.0  0.58862  0.58882  0.88020  1.0000
  C   C22       1.0  0.41139  0.41118  0.11980  1.0000
  C   C23       1.0  0.34782  0.55572  0.11037  1.0000
  C   C24       1.0  0.65219  0.44428  0.88964  1.0000
  C   C25       1.0  0.43587  0.64666  0.99083  1.0000
  C   C26       1.0  0.56414  0.35334  0.00917  1.0000
  C   C27       1.0  0.36761  0.80409  0.97871  1.0000
  C   C28       1.0  0.63240  0.19590  0.02129  1.0000
  N   N1        1.0  0.05044  0.18678  0.08838  1.0000
  N   N2        1.0  0.94956  0.81322  0.91162  1.0000
  N   N3        1.0  0.18776  0.01244  0.78867  1.0000
  N   N4        1.0  0.81224  0.98756  0.21132  1.0000
  O   O1        1.0  0.45360  0.87630  0.86280  1.0000
  O   O2        1.0  0.54641  0.12370  0.13720  1.0000
  O   O3        1.0  0.22687  0.85053  0.08045  1.0000
  O   O4        1.0  0.77314  0.14946  0.91955  1.0000
