data_image0
_chemical_formula_structural       Cu6H24C36I6N12
_chemical_formula_sum              "Cu6 H24 C36 I6 N12"
_cell_length_a       6.83745
_cell_length_b       12.5885
_cell_length_c       13.4681
_cell_angle_alpha    68.8428
_cell_angle_beta     80.5319
_cell_angle_gamma    82.1597

_space_group_name_H-M_alt    "P 1"
_space_group_IT_number       1

loop_
  _space_group_symop_operation_xyz
  'x, y, z'

loop_
  _atom_site_type_symbol
  _atom_site_label
  _atom_site_symmetry_multiplicity
  _atom_site_fract_x
  _atom_site_fract_y
  _atom_site_fract_z
  _atom_site_occupancy
  Cu  Cu1       1.0  0.02211  0.30671  0.34978  1.0000
  Cu  Cu2       1.0  0.97788  0.69329  0.65023  1.0000
  Cu  Cu3       1.0  0.36604  0.36612  0.23831  1.0000
  Cu  Cu4       1.0  0.63395  0.63388  0.76168  1.0000
  Cu  Cu5       1.0  0.45209  0.96699  0.11779  1.0000
  Cu  Cu6       1.0  0.54791  0.03301  0.88221  1.0000
  H   H1        1.0  0.28088  0.50344  0.01919  1.0000
  H   H2        1.0  0.71913  0.49656  0.98080  1.0000
  H   H3        1.0  0.13378  0.47569  0.87374  1.0000
  H   H4        1.0  0.86624  0.52431  0.12625  1.0000
  H   H5        1.0  0.04834  0.27864  0.89823  1.0000
  H   H6        1.0  0.95169  0.72135  0.10177  1.0000
  H   H7        1.0  0.12892  0.11653  0.06453  1.0000
  H   H8        1.0  0.87108  0.88347  0.93546  1.0000
  H   H9        1.0  0.57551  0.70553  0.17072  1.0000
  H   H10       1.0  0.42450  0.29447  0.82927  1.0000
  H   H11       1.0  0.64668  0.54221  0.33743  1.0000
  H   H12       1.0  0.35332  0.45780  0.66257  1.0000
  H   H13       1.0  0.58975  0.57777  0.51436  1.0000
  H   H14       1.0  0.41025  0.42224  0.48563  1.0000
  H   H15       1.0  0.44117  0.77045  0.51532  1.0000
  H   H16       1.0  0.55882  0.22955  0.48468  1.0000
  H   H17       1.0  0.26357  0.94543  0.62627  1.0000
  H   H18       1.0  0.73645  0.05458  0.37372  1.0000
  H   H19       1.0  0.13744  0.00049  0.78916  1.0000
  H   H20       1.0  0.86258  0.99950  0.21084  1.0000
  H   H21       1.0  0.96461  0.19687  0.76176  1.0000
  H   H22       1.0  0.03540  0.80312  0.23825  1.0000
  H   H23       1.0  0.92025  0.32781  0.57512  1.0000
  H   H24       1.0  0.07974  0.67218  0.42489  1.0000
  C   C1        1.0  0.24345  0.41912  0.02674  1.0000
  C   C2        1.0  0.75654  0.58088  0.97326  1.0000
  C   C3        1.0  0.16161  0.40289  0.94575  1.0000
  C   C4        1.0  0.83839  0.59711  0.05425  1.0000
  C   C5        1.0  0.11653  0.29351  0.95919  1.0000
  C   C6        1.0  0.88348  0.70649  0.04081  1.0000
  C   C7        1.0  0.15904  0.20355  0.05199  1.0000
  C   C8        1.0  0.84096  0.79645  0.94801  1.0000
  C   C9        1.0  0.23450  0.22725  0.13115  1.0000
  C   C10       1.0  0.76550  0.77275  0.86886  1.0000
  C   C11       1.0  0.26183  0.13733  0.23576  1.0000
  C   C12       1.0  0.73817  0.86267  0.76424  1.0000
  C   C13       1.0  0.36054  0.95393  0.33784  1.0000
  C   C14       1.0  0.63947  0.04607  0.66216  1.0000
  C   C15       1.0  0.44718  0.83947  0.34317  1.0000
  C   C16       1.0  0.55282  0.16053  0.65683  1.0000
  C   C17       1.0  0.55398  0.71661  0.24842  1.0000
  C   C18       1.0  0.44603  0.28340  0.75157  1.0000
  C   C19       1.0  0.59019  0.62572  0.34213  1.0000
  C   C20       1.0  0.40980  0.37429  0.65787  1.0000
  C   C21       1.0  0.55663  0.64513  0.43968  1.0000
  C   C22       1.0  0.44336  0.35488  0.56032  1.0000
  C   C23       1.0  0.47916  0.75280  0.44067  1.0000
  C   C24       1.0  0.52082  0.24721  0.55933  1.0000
  C   C25       1.0  0.23606  0.08255  0.41959  1.0000
  C   C26       1.0  0.76394  0.91745  0.58041  1.0000
  C   C27       1.0  0.16048  0.10849  0.51732  1.0000
  C   C28       1.0  0.83952  0.89151  0.48269  1.0000
  C   C29       1.0  0.18766  0.02927  0.61910  1.0000
  C   C30       1.0  0.81233  0.97073  0.38090  1.0000
  C   C31       1.0  0.11645  0.05993  0.70873  1.0000
  C   C32       1.0  0.88356  0.94006  0.29128  1.0000
  C   C33       1.0  0.02197  0.16926  0.69375  1.0000
  C   C34       1.0  0.97803  0.83074  0.30626  1.0000
  C   C35       1.0  0.99597  0.24247  0.59001  1.0000
  C   C36       1.0  0.00402  0.75753  0.41000  1.0000
  I   I1        1.0  0.72991  0.29753  0.25359  1.0000
  I   I2        1.0  0.27009  0.70247  0.74641  1.0000
  I   I3        1.0  0.14057  0.50881  0.30584  1.0000
  I   I4        1.0  0.85943  0.49119  0.69416  1.0000
  I   I5        1.0  0.28320  0.89684  0.99642  1.0000
  I   I6        1.0  0.71680  0.10316  0.00358  1.0000
  N   N1        1.0  0.49099  0.82245  0.24775  1.0000
  N   N2        1.0  0.50902  0.17756  0.75225  1.0000
  N   N3        1.0  0.32664  0.03056  0.23875  1.0000
  N   N4        1.0  0.67335  0.96944  0.76125  1.0000
  N   N5        1.0  0.27519  0.33386  0.11925  1.0000
  N   N6        1.0  0.72480  0.66614  0.88075  1.0000
  N   N7        1.0  0.21625  0.16815  0.32372  1.0000
  N   N8        1.0  0.78375  0.83185  0.67628  1.0000
  N   N9        1.0  0.06072  0.21280  0.50306  1.0000
  N   N10       1.0  0.93927  0.78720  0.49695  1.0000
  N   N11       1.0  0.31562  0.97716  0.42850  1.0000
  N   N12       1.0  0.68438  0.02284  0.57150  1.0000
