data_image0
_chemical_formula_structural       Fe2H28Pt2C40N20O4
_chemical_formula_sum              "Fe2 H28 Pt2 C40 N20 O4"
_cell_length_a       6.961
_cell_length_b       7.25006
_cell_length_c       21.7064
_cell_angle_alpha    99.5701
_cell_angle_beta     89.999
_cell_angle_gamma    89.9998

_space_group_name_H-M_alt    "P 1"
_space_group_IT_number       1

loop_
  _space_group_symop_operation_xyz
  'x, y, z'

loop_
  _atom_site_type_symbol
  _atom_site_label
  _atom_site_symmetry_multiplicity
  _atom_site_fract_x
  _atom_site_fract_y
  _atom_site_fract_z
  _atom_site_occupancy
  Fe  Fe1       1.0  0.99997  0.50003  0.50000  1.0000
  Fe  Fe2       1.0  0.50002  0.50000  1.00000  1.0000
  H   H1        1.0  0.01952  0.28678  0.61805  1.0000
  H   H2        1.0  0.51951  0.71323  0.88195  1.0000
  H   H3        1.0  0.98045  0.71324  0.38195  1.0000
  H   H4        1.0  0.48050  0.28677  0.11805  1.0000
  H   H5        1.0  0.03546  0.73575  0.79966  1.0000
  H   H6        1.0  0.53546  0.26423  0.70034  1.0000
  H   H7        1.0  0.96455  0.26422  0.20034  1.0000
  H   H8        1.0  0.46453  0.73577  0.29966  1.0000
  H   H9        1.0  0.90279  0.17360  0.70789  1.0000
  H   H10       1.0  0.40277  0.82638  0.79211  1.0000
  H   H11       1.0  0.09720  0.82638  0.29211  1.0000
  H   H12       1.0  0.59726  0.17363  0.20789  1.0000
  H   H13       1.0  0.91346  0.82580  0.72154  1.0000
  H   H14       1.0  0.41350  0.17418  0.77847  1.0000
  H   H15       1.0  0.08653  0.17419  0.27847  1.0000
  H   H16       1.0  0.58651  0.82582  0.22153  1.0000
  H   H17       1.0  0.95783  0.29699  0.90843  1.0000
  H   H18       1.0  0.45782  0.70298  0.59157  1.0000
  H   H19       1.0  0.04217  0.70297  0.09157  1.0000
  H   H20       1.0  0.54220  0.29701  0.40842  1.0000
  H   H21       1.0  0.02507  0.62829  0.90242  1.0000
  H   H22       1.0  0.52507  0.37169  0.59758  1.0000
  H   H23       1.0  0.97495  0.37168  0.09758  1.0000
  H   H24       1.0  0.47494  0.62830  0.40242  1.0000
  H   H25       1.0  0.87853  0.01668  0.85418  1.0000
  H   H26       1.0  0.37850  0.98330  0.64583  1.0000
  H   H27       1.0  0.12146  0.98330  0.14582  1.0000
  H   H28       1.0  0.62151  0.01670  0.35417  1.0000
  Pt  Pt1       1.0  0.49997  0.00003  0.50001  1.0000
  Pt  Pt2       1.0  0.00001  0.99999  1.00000  1.0000
  C   C1        1.0  0.69487  0.80003  0.49608  1.0000
  C   C2        1.0  0.19490  0.19999  0.00392  1.0000
  C   C3        1.0  0.30508  0.20003  0.50393  1.0000
  C   C4        1.0  0.80511  0.79999  0.99607  1.0000
  C   C5        1.0  0.99364  0.43543  0.63057  1.0000
  C   C6        1.0  0.49364  0.56459  0.86943  1.0000
  C   C7        1.0  0.00633  0.56460  0.36943  1.0000
  C   C8        1.0  0.50636  0.43541  0.13057  1.0000
  C   C9        1.0  0.96923  0.46248  0.74771  1.0000
  C   C10       1.0  0.46923  0.53750  0.75229  1.0000
  C   C11       1.0  0.03077  0.53749  0.25228  1.0000
  C   C12       1.0  0.53080  0.46250  0.24771  1.0000
  C   C13       1.0  0.29671  0.80960  0.49949  1.0000
  C   C14       1.0  0.79674  0.19043  0.00051  1.0000
  C   C15       1.0  0.70323  0.19049  0.50052  1.0000
  C   C16       1.0  0.20329  0.80955  0.99948  1.0000
  C   C17       1.0  0.00316  0.59068  0.80223  1.0000
  C   C18       1.0  0.50316  0.40930  0.69777  1.0000
  C   C19       1.0  0.99685  0.40930  0.19777  1.0000
  C   C20       1.0  0.49685  0.59069  0.30223  1.0000
  C   C21       1.0  0.93246  0.27415  0.74997  1.0000
  C   C22       1.0  0.43244  0.72582  0.75003  1.0000
  C   C23       1.0  0.06753  0.72582  0.25003  1.0000
  C   C24       1.0  0.56758  0.27418  0.24997  1.0000
  C   C25       1.0  0.92825  0.21712  0.80851  1.0000
  C   C26       1.0  0.42823  0.78284  0.69149  1.0000
  C   C27       1.0  0.07175  0.78285  0.19149  1.0000
  C   C28       1.0  0.57179  0.21714  0.30851  1.0000
  C   C29       1.0  0.94241  0.71422  0.68283  1.0000
  C   C30       1.0  0.44244  0.28578  0.81718  1.0000
  C   C31       1.0  0.05758  0.28580  0.31718  1.0000
  C   C32       1.0  0.55758  0.71422  0.18282  1.0000
  C   C33       1.0  0.96153  0.34374  0.86333  1.0000
  C   C34       1.0  0.46152  0.65624  0.63667  1.0000
  C   C35       1.0  0.03847  0.65623  0.13667  1.0000
  C   C36       1.0  0.53851  0.34375  0.36332  1.0000
  C   C37       1.0  0.99857  0.52990  0.85972  1.0000
  C   C38       1.0  0.49856  0.47007  0.64028  1.0000
  C   C39       1.0  0.00144  0.47006  0.14028  1.0000
  C   C40       1.0  0.50144  0.52992  0.35972  1.0000
  N   N1        1.0  0.18406  0.68994  0.50006  1.0000
  N   N2        1.0  0.68406  0.31008  0.99994  1.0000
  N   N3        1.0  0.81589  0.31012  0.49994  1.0000
  N   N4        1.0  0.31595  0.68991  0.00006  1.0000
  N   N5        1.0  0.96877  0.53064  0.68990  1.0000
  N   N6        1.0  0.46878  0.46935  0.81010  1.0000
  N   N7        1.0  0.03122  0.46936  0.31010  1.0000
  N   N8        1.0  0.53123  0.53065  0.18990  1.0000
  N   N9        1.0  0.80672  0.67905  0.49504  1.0000
  N   N10       1.0  0.30676  0.32099  0.00496  1.0000
  N   N11       1.0  0.19323  0.32101  0.50496  1.0000
  N   N12       1.0  0.69326  0.67900  0.99504  1.0000
  N   N13       1.0  0.98384  0.55571  0.59095  1.0000
  N   N14       1.0  0.48386  0.44431  0.90905  1.0000
  N   N15       1.0  0.01613  0.44433  0.40905  1.0000
  N   N16       1.0  0.51615  0.55569  0.09095  1.0000
  N   N17       1.0  0.95193  0.73255  0.62373  1.0000
  N   N18       1.0  0.45198  0.26746  0.87627  1.0000
  N   N19       1.0  0.04803  0.26748  0.37628  1.0000
  N   N20       1.0  0.54804  0.73255  0.12373  1.0000
  O   O1        1.0  0.88773  0.03259  0.81038  1.0000
  O   O2        1.0  0.38771  0.96737  0.68962  1.0000
  O   O3        1.0  0.11226  0.96738  0.18961  1.0000
  O   O4        1.0  0.61232  0.03261  0.31038  1.0000
