data_image0
_chemical_formula_structural       Zn2H14C14N2O12
_chemical_formula_sum              "Zn2 H14 C14 N2 O12"
_cell_length_a       7.21169
_cell_length_b       7.82542
_cell_length_c       7.8255
_cell_angle_alpha    98.7427
_cell_angle_beta     100.377
_cell_angle_gamma    100.378

_space_group_name_H-M_alt    "P 1"
_space_group_IT_number       1

loop_
  _space_group_symop_operation_xyz
  'x, y, z'

loop_
  _atom_site_type_symbol
  _atom_site_label
  _atom_site_symmetry_multiplicity
  _atom_site_fract_x
  _atom_site_fract_y
  _atom_site_fract_z
  _atom_site_occupancy
  Zn  Zn1       1.0  0.25000  0.84669  0.15332  1.0000
  Zn  Zn2       1.0  0.75000  0.15331  0.84668  1.0000
  H   H1        1.0  0.90128  0.66465  0.11638  1.0000
  H   H2        1.0  0.59872  0.88363  0.33536  1.0000
  H   H3        1.0  0.09872  0.33535  0.88362  1.0000
  H   H4        1.0  0.40128  0.11637  0.66464  1.0000
  H   H5        1.0  0.88121  0.82491  0.01563  1.0000
  H   H6        1.0  0.61880  0.98438  0.17510  1.0000
  H   H7        1.0  0.11879  0.17509  0.98438  1.0000
  H   H8        1.0  0.38120  0.01562  0.82490  1.0000
  H   H9        1.0  0.28404  0.45889  0.15204  1.0000
  H   H10       1.0  0.21596  0.84797  0.54111  1.0000
  H   H11       1.0  0.71596  0.54111  0.84796  1.0000
  H   H12       1.0  0.78404  0.15204  0.45889  1.0000
  H   H13       1.0  0.25000  0.33440  0.66560  1.0000
  H   H14       1.0  0.75000  0.66560  0.33440  1.0000
  C   C1        1.0  0.27087  0.18137  0.33546  1.0000
  C   C2        1.0  0.22913  0.66454  0.81863  1.0000
  C   C3        1.0  0.72913  0.81863  0.66454  1.0000
  C   C4        1.0  0.77087  0.33545  0.18137  1.0000
  C   C5        1.0  0.26213  0.36984  0.39894  1.0000
  C   C6        1.0  0.23786  0.60106  0.63016  1.0000
  C   C7        1.0  0.73787  0.63017  0.60106  1.0000
  C   C8        1.0  0.76214  0.39894  0.36984  1.0000
  C   C9        1.0  0.26655  0.49328  0.28722  1.0000
  C   C10       1.0  0.23345  0.71279  0.50673  1.0000
  C   C11       1.0  0.73345  0.50672  0.71279  1.0000
  C   C12       1.0  0.76654  0.28721  0.49327  1.0000
  C   C13       1.0  0.25000  0.42613  0.57387  1.0000
  C   C14       1.0  0.75000  0.57387  0.42612  1.0000
  N   N1        1.0  0.25000  0.66088  0.33913  1.0000
  N   N2        1.0  0.75000  0.33913  0.66086  1.0000
  O   O1        1.0  0.95463  0.79289  0.12243  1.0000
  O   O2        1.0  0.54536  0.87758  0.20711  1.0000
  O   O3        1.0  0.04537  0.20710  0.87757  1.0000
  O   O4        1.0  0.45463  0.12242  0.79289  1.0000
  O   O5        1.0  0.24606  0.12309  0.16877  1.0000
  O   O6        1.0  0.25394  0.83122  0.87692  1.0000
  O   O7        1.0  0.75394  0.87691  0.83122  1.0000
  O   O8        1.0  0.74607  0.16877  0.12308  1.0000
  O   O9        1.0  0.30141  0.08415  0.44769  1.0000
  O   O10       1.0  0.19858  0.55231  0.91585  1.0000
  O   O11       1.0  0.69858  0.91585  0.55231  1.0000
  O   O12       1.0  0.80141  0.44768  0.08414  1.0000
