data_image0
_chemical_formula_structural       Cu2H28C40N8O8
_chemical_formula_sum              "Cu2 H28 C40 N8 O8"
_cell_length_a       8.62632
_cell_length_b       8.62718
_cell_length_c       13.4218
_cell_angle_alpha    95.7258
_cell_angle_beta     108.365
_cell_angle_gamma    110.77

_space_group_name_H-M_alt    "P 1"
_space_group_IT_number       1

loop_
  _space_group_symop_operation_xyz
  'x, y, z'

loop_
  _atom_site_type_symbol
  _atom_site_label
  _atom_site_symmetry_multiplicity
  _atom_site_fract_x
  _atom_site_fract_y
  _atom_site_fract_z
  _atom_site_occupancy
  Cu  Cu1       1.0  0.50000  0.00000  0.50000  1.0000
  Cu  Cu2       1.0  1.00000  0.00000  0.00000  1.0000
  H   H1        1.0  0.35736  0.94833  0.24106  1.0000
  H   H2        1.0  0.20717  0.11631  0.25905  1.0000
  H   H3        1.0  0.64264  0.05167  0.75894  1.0000
  H   H4        1.0  0.79283  0.88369  0.74095  1.0000
  H   H5        1.0  0.87111  0.05031  0.46844  1.0000
  H   H6        1.0  0.08227  0.40267  0.03157  1.0000
  H   H7        1.0  0.12888  0.94970  0.53156  1.0000
  H   H8        1.0  0.91773  0.59733  0.96843  1.0000
  H   H9        1.0  0.88647  0.04492  0.26418  1.0000
  H   H10       1.0  0.28097  0.62226  0.23582  1.0000
  H   H11       1.0  0.11353  0.95508  0.73582  1.0000
  H   H12       1.0  0.71903  0.37774  0.76418  1.0000
  H   H13       1.0  0.79562  0.21368  0.13067  1.0000
  H   H14       1.0  0.58307  0.66494  0.36937  1.0000
  H   H15       1.0  0.20438  0.78632  0.86933  1.0000
  H   H16       1.0  0.41693  0.33506  0.63063  1.0000
  H   H17       1.0  0.29953  0.78248  0.06338  1.0000
  H   H18       1.0  0.21901  0.23616  0.43655  1.0000
  H   H19       1.0  0.70047  0.21752  0.93662  1.0000
  H   H20       1.0  0.78099  0.76384  0.56345  1.0000
  H   H21       1.0  0.99463  0.53998  0.42844  1.0000
  H   H22       1.0  0.61148  0.56619  0.07160  1.0000
  H   H23       1.0  0.00537  0.46002  0.57156  1.0000
  H   H24       1.0  0.38852  0.43381  0.92840  1.0000
  H   H25       1.0  0.67815  0.32567  0.34021  1.0000
  H   H26       1.0  0.48544  0.33798  0.15983  1.0000
  H   H27       1.0  0.32185  0.67433  0.65979  1.0000
  H   H28       1.0  0.51456  0.66201  0.84017  1.0000
  C   C1        1.0  0.49942  0.97842  0.27799  1.0000
  C   C2        1.0  0.20038  0.22141  0.22210  1.0000
  C   C3        1.0  0.50057  0.02157  0.72200  1.0000
  C   C4        1.0  0.79962  0.77859  0.77790  1.0000
  C   C5        1.0  0.76814  0.03228  0.39157  1.0000
  C   C6        1.0  0.14099  0.37650  0.10843  1.0000
  C   C7        1.0  0.23186  0.96772  0.60843  1.0000
  C   C8        1.0  0.85900  0.62351  0.89157  1.0000
  C   C9        1.0  0.77816  0.03185  0.29158  1.0000
  C   C10       1.0  0.24056  0.48657  0.20841  1.0000
  C   C11       1.0  0.22184  0.96815  0.70842  1.0000
  C   C12       1.0  0.75944  0.51343  0.79159  1.0000
  C   C13       1.0  0.55400  0.99671  0.10826  1.0000
  C   C14       1.0  0.38843  0.44582  0.39176  1.0000
  C   C15       1.0  0.44600  0.00328  0.89174  1.0000
  C   C16       1.0  0.61158  0.55418  0.60824  1.0000
  C   C17       1.0  0.66707  0.11919  0.07317  1.0000
  C   C18       1.0  0.54607  0.59400  0.42690  1.0000
  C   C19       1.0  0.33293  0.88080  0.92683  1.0000
  C   C20       1.0  0.45393  0.40600  0.57310  1.0000
  C   C21       1.0  0.38717  0.87722  0.03542  1.0000
  C   C22       1.0  0.34172  0.35173  0.46454  1.0000
  C   C23       1.0  0.61283  0.12278  0.96458  1.0000
  C   C24       1.0  0.65829  0.64827  0.53546  1.0000
  C   C25       1.0  0.15922  0.81483  0.36221  1.0000
  C   C26       1.0  0.95276  0.79704  0.13780  1.0000
  C   C27       1.0  0.84078  0.18517  0.63779  1.0000
  C   C28       1.0  0.04724  0.20296  0.86220  1.0000
  C   C29       1.0  0.97874  0.67216  0.30108  1.0000
  C   C30       1.0  0.87116  0.67765  0.19892  1.0000
  C   C31       1.0  0.02127  0.32784  0.69892  1.0000
  C   C32       1.0  0.12884  0.32234  0.80108  1.0000
  C   C33       1.0  0.90883  0.54334  0.34999  1.0000
  C   C34       1.0  0.69337  0.55887  0.15003  1.0000
  C   C35       1.0  0.09117  0.45665  0.65001  1.0000
  C   C36       1.0  0.30664  0.44113  0.84997  1.0000
  C   C37       1.0  0.73152  0.42341  0.29995  1.0000
  C   C38       1.0  0.62344  0.43166  0.20008  1.0000
  C   C39       1.0  0.26848  0.57659  0.70005  1.0000
  C   C40       1.0  0.37656  0.56834  0.79992  1.0000
  N   N1        1.0  0.59401  0.99947  0.38208  1.0000
  N   N2        1.0  0.11733  0.21182  0.11797  1.0000
  N   N3        1.0  0.40598  0.00053  0.61791  1.0000
  N   N4        1.0  0.88267  0.78818  0.88202  1.0000
  N   N5        1.0  0.60732  0.99739  0.22032  1.0000
  N   N6        1.0  0.27723  0.38700  0.27970  1.0000
  N   N7        1.0  0.39268  0.00261  0.77968  1.0000
  N   N8        1.0  0.72277  0.61300  0.72029  1.0000
  O   O1        1.0  0.28718  0.77572  0.41549  1.0000
  O   O2        1.0  0.86026  0.87163  0.08448  1.0000
  O   O3        1.0  0.71283  0.22428  0.58451  1.0000
  O   O4        1.0  0.13974  0.12837  0.91552  1.0000
  O   O5        1.0  0.17552  0.96616  0.36329  1.0000
  O   O6        1.0  0.10303  0.81238  0.13670  1.0000
  O   O7        1.0  0.82447  0.03384  0.63671  1.0000
  O   O8        1.0  0.89697  0.18762  0.86330  1.0000
