data_image0
_chemical_formula_structural       Ni2H28C40N8O8
_chemical_formula_sum              "Ni2 H28 C40 N8 O8"
_cell_length_a       8.733
_cell_length_b       8.73302
_cell_length_c       12.7792
_cell_angle_alpha    75.1264
_cell_angle_beta     75.1269
_cell_angle_gamma    67.821

_space_group_name_H-M_alt    "P 1"
_space_group_IT_number       1

loop_
  _space_group_symop_operation_xyz
  'x, y, z'

loop_
  _atom_site_type_symbol
  _atom_site_label
  _atom_site_symmetry_multiplicity
  _atom_site_fract_x
  _atom_site_fract_y
  _atom_site_fract_z
  _atom_site_occupancy
  Ni  Ni1       1.0  1.00000  1.00000  0.50000  1.0000
  Ni  Ni2       1.0  0.00000  0.00000  1.00000  1.0000
  H   H1        1.0  0.04568  0.12139  0.23521  1.0000
  H   H2        1.0  0.87862  0.95432  0.26479  1.0000
  H   H3        1.0  0.95432  0.87861  0.76479  1.0000
  H   H4        1.0  0.12138  0.04568  0.73520  1.0000
  H   H5        1.0  0.94101  0.39748  0.48730  1.0000
  H   H6        1.0  0.60252  0.05900  0.01270  1.0000
  H   H7        1.0  0.05900  0.60251  0.51270  1.0000
  H   H8        1.0  0.39748  0.94100  0.98730  1.0000
  H   H9        1.0  0.94361  0.61487  0.28425  1.0000
  H   H10       1.0  0.38514  0.05639  0.21575  1.0000
  H   H11       1.0  0.05639  0.38513  0.71575  1.0000
  H   H12       1.0  0.61486  0.94361  0.78425  1.0000
  H   H13       1.0  0.77397  0.65885  0.13442  1.0000
  H   H14       1.0  0.34115  0.22603  0.36557  1.0000
  H   H15       1.0  0.22603  0.34115  0.86558  1.0000
  H   H16       1.0  0.65885  0.77397  0.63443  1.0000
  H   H17       1.0  0.22159  0.23892  0.06623  1.0000
  H   H18       1.0  0.76108  0.77840  0.43377  1.0000
  H   H19       1.0  0.77841  0.76108  0.93377  1.0000
  H   H20       1.0  0.23892  0.22160  0.56623  1.0000
  H   H21       1.0  0.52346  0.40803  0.57184  1.0000
  H   H22       1.0  0.59196  0.47652  0.92816  1.0000
  H   H23       1.0  0.47653  0.59197  0.42816  1.0000
  H   H24       1.0  0.40804  0.52348  0.07185  1.0000
  H   H25       1.0  0.31957  0.64971  0.65861  1.0000
  H   H26       1.0  0.35028  0.68043  0.84139  1.0000
  H   H27       1.0  0.68043  0.35029  0.34140  1.0000
  H   H28       1.0  0.64971  0.31957  0.15861  1.0000
  C   C1        1.0  0.01704  0.22341  0.27873  1.0000
  C   C2        1.0  0.77660  0.98296  0.22127  1.0000
  C   C3        1.0  0.98296  0.77659  0.72127  1.0000
  C   C4        1.0  0.22340  0.01704  0.77873  1.0000
  C   C5        1.0  0.96183  0.37284  0.40507  1.0000
  C   C6        1.0  0.62717  0.03818  0.09492  1.0000
  C   C7        1.0  0.03817  0.62715  0.59493  1.0000
  C   C8        1.0  0.37283  0.96182  0.90508  1.0000
  C   C9        1.0  0.96059  0.48190  0.30607  1.0000
  C   C10       1.0  0.51811  0.03942  0.19392  1.0000
  C   C11       1.0  0.03941  0.51810  0.69393  1.0000
  C   C12       1.0  0.48189  0.96058  0.80608  1.0000
  C   C13       1.0  0.99843  0.44395  0.11162  1.0000
  C   C14       1.0  0.55606  0.00157  0.38838  1.0000
  C   C15       1.0  0.00157  0.55605  0.88838  1.0000
  C   C16       1.0  0.44394  0.99843  0.61162  1.0000
  C   C17       1.0  0.87322  0.59035  0.07529  1.0000
  C   C18       1.0  0.40966  0.12679  0.42471  1.0000
  C   C19       1.0  0.12678  0.40965  0.92471  1.0000
  C   C20       1.0  0.59034  0.87322  0.57529  1.0000
  C   C21       1.0  0.12485  0.35312  0.03687  1.0000
  C   C22       1.0  0.64688  0.87515  0.46313  1.0000
  C   C23       1.0  0.87515  0.64688  0.96313  1.0000
  C   C24       1.0  0.35312  0.12485  0.53687  1.0000
  C   C25       1.0  0.79759  0.18395  0.63212  1.0000
  C   C26       1.0  0.81605  0.20241  0.86788  1.0000
  C   C27       1.0  0.20241  0.81606  0.36788  1.0000
  C   C28       1.0  0.18395  0.79759  0.13212  1.0000
  C   C29       1.0  0.67205  0.31022  0.69877  1.0000
  C   C30       1.0  0.68976  0.32793  0.80124  1.0000
  C   C31       1.0  0.32794  0.68978  0.30123  1.0000
  C   C32       1.0  0.31024  0.67207  0.19876  1.0000
  C   C33       1.0  0.53609  0.42558  0.65015  1.0000
  C   C34       1.0  0.57441  0.46390  0.84985  1.0000
  C   C35       1.0  0.46391  0.57442  0.34985  1.0000
  C   C36       1.0  0.42559  0.53610  0.15015  1.0000
  C   C37       1.0  0.42148  0.55949  0.69967  1.0000
  C   C38       1.0  0.44050  0.57851  0.80033  1.0000
  C   C39       1.0  0.57852  0.44051  0.30033  1.0000
  C   C40       1.0  0.55950  0.42149  0.19967  1.0000
  N   N1        1.0  0.99659  0.21244  0.38697  1.0000
  N   N2        1.0  0.78757  0.00342  0.11303  1.0000
  N   N3        1.0  0.00341  0.78756  0.61303  1.0000
  N   N4        1.0  0.21243  0.99658  0.88697  1.0000
  N   N5        1.0  0.99603  0.38546  0.22660  1.0000
  N   N6        1.0  0.61455  0.00397  0.27340  1.0000
  N   N7        1.0  0.00397  0.61454  0.77340  1.0000
  N   N8        1.0  0.38545  0.99603  0.72660  1.0000
  O   O1        1.0  0.74666  0.12629  0.57059  1.0000
  O   O2        1.0  0.87370  0.25334  0.92941  1.0000
  O   O3        1.0  0.25334  0.87371  0.42941  1.0000
  O   O4        1.0  0.12630  0.74666  0.07059  1.0000
  O   O5        1.0  0.95568  0.14382  0.62972  1.0000
  O   O6        1.0  0.85619  0.04430  0.87028  1.0000
  O   O7        1.0  0.04432  0.85618  0.37028  1.0000
  O   O8        1.0  0.14381  0.95570  0.12972  1.0000
