data_image0
_chemical_formula_structural       Sn2H32C32Cl4O4
_chemical_formula_sum              "Sn2 H32 C32 Cl4 O4"
_cell_length_a       8.63897
_cell_length_b       8.63892
_cell_length_c       11.2665
_cell_angle_alpha    87.5981
_cell_angle_beta     87.598
_cell_angle_gamma    87.4944

_space_group_name_H-M_alt    "P 1"
_space_group_IT_number       1

loop_
  _space_group_symop_operation_xyz
  'x, y, z'

loop_
  _atom_site_type_symbol
  _atom_site_label
  _atom_site_symmetry_multiplicity
  _atom_site_fract_x
  _atom_site_fract_y
  _atom_site_fract_z
  _atom_site_occupancy
  Sn  Sn1       1.0  0.04511  0.95137  0.50305  1.0000
  Sn  Sn2       1.0  0.95137  0.04510  0.00306  1.0000
  H   H1        1.0  0.01230  0.70418  0.71485  1.0000
  H   H2        1.0  0.70418  0.01230  0.21485  1.0000
  H   H3        1.0  0.18596  0.52709  0.83218  1.0000
  H   H4        1.0  0.52709  0.18596  0.33218  1.0000
  H   H5        1.0  0.47160  0.53401  0.79749  1.0000
  H   H6        1.0  0.53401  0.47160  0.29749  1.0000
  H   H7        1.0  0.58250  0.71315  0.64100  1.0000
  H   H8        1.0  0.71315  0.58250  0.14100  1.0000
  H   H9        1.0  0.40990  0.88396  0.51813  1.0000
  H   H10       1.0  0.88396  0.40990  0.01813  1.0000
  H   H11       1.0  0.97374  0.22276  0.30754  1.0000
  H   H12       1.0  0.22276  0.97374  0.80754  1.0000
  H   H13       1.0  0.06911  0.48405  0.25849  1.0000
  H   H14       1.0  0.48405  0.06911  0.75850  1.0000
  H   H15       1.0  0.27165  0.59125  0.37914  1.0000
  H   H16       1.0  0.59125  0.27165  0.87915  1.0000
  H   H17       1.0  0.38139  0.43324  0.54737  1.0000
  H   H18       1.0  0.43324  0.38139  0.04737  1.0000
  H   H19       1.0  0.28847  0.17083  0.59728  1.0000
  H   H20       1.0  0.17083  0.28847  0.09727  1.0000
  H   H21       1.0  0.76014  0.86770  0.55867  1.0000
  H   H22       1.0  0.86770  0.76014  0.05867  1.0000
  H   H23       1.0  0.75968  0.96581  0.41803  1.0000
  H   H24       1.0  0.96581  0.75967  0.91803  1.0000
  H   H25       1.0  0.69883  0.68060  0.40183  1.0000
  H   H26       1.0  0.68060  0.69882  0.90183  1.0000
  H   H27       1.0  0.88062  0.62422  0.45965  1.0000
  H   H28       1.0  0.62422  0.88062  0.95965  1.0000
  H   H29       1.0  0.87216  0.72493  0.31994  1.0000
  H   H30       1.0  0.72493  0.87215  0.81994  1.0000
  H   H31       1.0  0.32367  0.95002  0.09015  1.0000
  H   H32       1.0  0.95001  0.32366  0.59016  1.0000
  C   C1        1.0  0.19812  0.80761  0.60883  1.0000
  C   C2        1.0  0.80761  0.19812  0.10883  1.0000
  C   C3        1.0  0.13728  0.70693  0.69795  1.0000
  C   C4        1.0  0.70693  0.13727  0.19795  1.0000
  C   C5        1.0  0.23486  0.60799  0.76516  1.0000
  C   C6        1.0  0.60800  0.23486  0.26517  1.0000
  C   C7        1.0  0.39530  0.61143  0.74542  1.0000
  C   C8        1.0  0.61143  0.39530  0.24543  1.0000
  C   C9        1.0  0.45726  0.71202  0.65734  1.0000
  C   C10       1.0  0.71202  0.45726  0.15734  1.0000
  C   C11       1.0  0.35938  0.80877  0.58850  1.0000
  C   C12       1.0  0.80877  0.35938  0.08850  1.0000
  C   C13       1.0  0.12584  0.17695  0.45490  1.0000
  C   C14       1.0  0.17694  0.12584  0.95489  1.0000
  C   C15       1.0  0.06442  0.26679  0.35988  1.0000
  C   C16       1.0  0.26679  0.06443  0.85987  1.0000
  C   C17       1.0  0.11814  0.41482  0.33214  1.0000
  C   C18       1.0  0.41482  0.11814  0.83214  1.0000
  C   C19       1.0  0.23242  0.47456  0.39920  1.0000
  C   C20       1.0  0.47456  0.23242  0.89920  1.0000
  C   C21       1.0  0.29381  0.38590  0.49399  1.0000
  C   C22       1.0  0.38590  0.29381  0.99398  1.0000
  C   C23       1.0  0.24107  0.23758  0.52169  1.0000
  C   C24       1.0  0.23757  0.24107  0.02169  1.0000
  C   C25       1.0  0.81819  0.87217  0.47007  1.0000
  C   C26       1.0  0.87217  0.81819  0.97007  1.0000
  C   C27       1.0  0.81815  0.71749  0.40982  1.0000
  C   C28       1.0  0.71749  0.81814  0.90982  1.0000
  C   C29       1.0  0.16149  0.88531  0.23480  1.0000
  C   C30       1.0  0.88529  0.16149  0.73481  1.0000
  C   C31       1.0  0.30297  0.84940  0.15036  1.0000
  C   C32       1.0  0.84939  0.30297  0.65037  1.0000
  Cl  Cl1       1.0  0.47547  0.80586  0.22700  1.0000
  Cl  Cl2       1.0  0.80586  0.47548  0.72701  1.0000
  Cl  Cl3       1.0  0.25962  0.69412  0.05939  1.0000
  Cl  Cl4       1.0  0.69411  0.25962  0.55940  1.0000
  O   O1        1.0  0.17830  0.85359  0.34438  1.0000
  O   O2        1.0  0.85357  0.17829  0.84439  1.0000
  O   O3        1.0  0.04022  0.94343  0.18942  1.0000
  O   O4        1.0  0.94342  0.04022  0.68942  1.0000
