data_image0
_chemical_formula_structural       Zn2H44C40N4O8
_chemical_formula_sum              "Zn2 H44 C40 N4 O8"
_cell_length_a       7.88913
_cell_length_b       8.01076
_cell_length_c       14.8197
_cell_angle_alpha    89.9989
_cell_angle_beta     90.0011
_cell_angle_gamma    92.8611

_space_group_name_H-M_alt    "P 1"
_space_group_IT_number       1

loop_
  _space_group_symop_operation_xyz
  'x, y, z'

loop_
  _atom_site_type_symbol
  _atom_site_label
  _atom_site_symmetry_multiplicity
  _atom_site_fract_x
  _atom_site_fract_y
  _atom_site_fract_z
  _atom_site_occupancy
  Zn  Zn1       1.0  0.97257  0.77656  0.99993  1.0000
  Zn  Zn2       1.0  0.02745  0.22344  0.49993  1.0000
  H   H1        1.0  0.60040  0.63648  0.75986  1.0000
  H   H2        1.0  0.39958  0.36350  0.25986  1.0000
  H   H3        1.0  0.68332  0.44227  0.78797  1.0000
  H   H4        1.0  0.31665  0.55771  0.28798  1.0000
  H   H5        1.0  0.75790  0.55142  0.68946  1.0000
  H   H6        1.0  0.24210  0.44858  0.18947  1.0000
  H   H7        1.0  0.00358  0.71718  0.70315  1.0000
  H   H8        1.0  0.99641  0.28282  0.20314  1.0000
  H   H9        1.0  0.38326  0.88042  0.79531  1.0000
  H   H10       1.0  0.61673  0.11959  0.29533  1.0000
  H   H11       1.0  0.26384  0.04275  0.75108  1.0000
  H   H12       1.0  0.73617  0.95724  0.25110  1.0000
  H   H13       1.0  0.26660  0.84845  0.69242  1.0000
  H   H14       1.0  0.73339  0.15156  0.19242  1.0000
  H   H15       1.0  0.68240  0.46810  0.21821  1.0000
  H   H16       1.0  0.31758  0.53190  0.71822  1.0000
  H   H17       1.0  0.63694  0.66716  0.26195  1.0000
  H   H18       1.0  0.36303  0.33282  0.76195  1.0000
  H   H19       1.0  0.79535  0.55097  0.31464  1.0000
  H   H20       1.0  0.20463  0.44904  0.81465  1.0000
  H   H21       1.0  0.01908  0.74750  0.29763  1.0000
  H   H22       1.0  0.98093  0.25251  0.79764  1.0000
  H   H23       1.0  0.31051  0.06325  0.21014  1.0000
  H   H24       1.0  0.68951  0.93677  0.71013  1.0000
  H   H25       1.0  0.38575  0.86036  0.22607  1.0000
  H   H26       1.0  0.61425  0.13965  0.72607  1.0000
  H   H27       1.0  0.24667  0.94339  0.30706  1.0000
  H   H28       1.0  0.75337  0.05662  0.80706  1.0000
  H   H29       1.0  0.95241  0.14905  0.94746  1.0000
  H   H30       1.0  0.04759  0.85096  0.44747  1.0000
  H   H31       1.0  0.74555  0.37444  0.94651  1.0000
  H   H32       1.0  0.25444  0.62556  0.44652  1.0000
  H   H33       1.0  0.37267  0.00614  0.05076  1.0000
  H   H34       1.0  0.62734  0.99387  0.55077  1.0000
  H   H35       1.0  0.60355  0.80746  0.05725  1.0000
  H   H36       1.0  0.39644  0.19253  0.55725  1.0000
  H   H37       1.0  0.57817  0.54954  0.95538  1.0000
  H   H38       1.0  0.42182  0.45044  0.45539  1.0000
  H   H39       1.0  0.35017  0.75071  0.95576  1.0000
  H   H40       1.0  0.64984  0.24929  0.45577  1.0000
  H   H41       1.0  0.99085  0.39663  0.04297  1.0000
  H   H42       1.0  0.00916  0.60336  0.54298  1.0000
  H   H43       1.0  0.19741  0.17118  0.04152  1.0000
  H   H44       1.0  0.80260  0.82881  0.54153  1.0000
  C   C1        1.0  0.71669  0.56596  0.75936  1.0000
  C   C2        1.0  0.28330  0.43403  0.25936  1.0000
  C   C3        1.0  0.84871  0.65735  0.81739  1.0000
  C   C4        1.0  0.15128  0.34264  0.31738  1.0000
  C   C5        1.0  0.98989  0.73878  0.77524  1.0000
  C   C6        1.0  0.01011  0.26123  0.27524  1.0000
  C   C7        1.0  0.11533  0.84589  0.81587  1.0000
  C   C8        1.0  0.88467  0.15412  0.31587  1.0000
  C   C9        1.0  0.26559  0.90659  0.75933  1.0000
  C   C10       1.0  0.73440  0.09341  0.25934  1.0000
  C   C11       1.0  0.73954  0.58152  0.24943  1.0000
  C   C12       1.0  0.26044  0.41849  0.74944  1.0000
  C   C13       1.0  0.86769  0.66515  0.18603  1.0000
  C   C14       1.0  0.13231  0.33485  0.68604  1.0000
  C   C15       1.0  0.00697  0.75665  0.22467  1.0000
  C   C16       1.0  0.99302  0.24338  0.72467  1.0000
  C   C17       1.0  0.12863  0.86204  0.18038  1.0000
  C   C18       1.0  0.87138  0.13798  0.68037  1.0000
  C   C19       1.0  0.27513  0.93746  0.23494  1.0000
  C   C20       1.0  0.72489  0.06255  0.73494  1.0000
  C   C21       1.0  0.82322  0.12591  0.97223  1.0000
  C   C22       1.0  0.17678  0.87410  0.47224  1.0000
  C   C23       1.0  0.70571  0.24974  0.97037  1.0000
  C   C24       1.0  0.29430  0.75026  0.47036  1.0000
  C   C25       1.0  0.53821  0.21154  0.99875  1.0000
  C   C26       1.0  0.46180  0.78845  0.49875  1.0000
  C   C27       1.0  0.49990  0.04755  0.02877  1.0000
  C   C28       1.0  0.50012  0.95245  0.52877  1.0000
  C   C29       1.0  0.62729  0.93393  0.03144  1.0000
  C   C30       1.0  0.37272  0.06607  0.53145  1.0000
  C   C31       1.0  0.40857  0.33885  0.99802  1.0000
  C   C32       1.0  0.59143  0.66114  0.49803  1.0000
  C   C33       1.0  0.44983  0.50601  0.97458  1.0000
  C   C34       1.0  0.55016  0.49398  0.47460  1.0000
  C   C35       1.0  0.32347  0.62083  0.97502  1.0000
  C   C36       1.0  0.67653  0.37917  0.47504  1.0000
  C   C37       1.0  0.12217  0.42249  0.02226  1.0000
  C   C38       1.0  0.87784  0.57751  0.52227  1.0000
  C   C39       1.0  0.23914  0.29807  0.02208  1.0000
  C   C40       1.0  0.76085  0.70192  0.52210  1.0000
  N   N1        1.0  0.78661  0.97081  0.00322  1.0000
  N   N2        1.0  0.21340  0.02919  0.50322  1.0000
  N   N3        1.0  0.16181  0.58132  0.99834  1.0000
  N   N4        1.0  0.83820  0.41869  0.49835  1.0000
  O   O1        1.0  0.81914  0.65409  0.90252  1.0000
  O   O2        1.0  0.18085  0.34588  0.40252  1.0000
  O   O3        1.0  0.11468  0.89819  0.89754  1.0000
  O   O4        1.0  0.88531  0.10184  0.39755  1.0000
  O   O5        1.0  0.83549  0.64928  0.10168  1.0000
  O   O6        1.0  0.16453  0.35068  0.60170  1.0000
  O   O7        1.0  0.12917  0.89885  0.09620  1.0000
  O   O8        1.0  0.87085  0.10115  0.59620  1.0000
