data_image0
_chemical_formula_structural       Na2H14C18O14
_chemical_formula_sum              "Na2 H14 C18 O14"
_cell_length_a       6.98889
_cell_length_b       7.0379
_cell_length_c       10.5953
_cell_angle_alpha    88.1511
_cell_angle_beta     83.1145
_cell_angle_gamma    66.7184

_space_group_name_H-M_alt    "P 1"
_space_group_IT_number       1

loop_
  _space_group_symop_operation_xyz
  'x, y, z'

loop_
  _atom_site_type_symbol
  _atom_site_label
  _atom_site_symmetry_multiplicity
  _atom_site_fract_x
  _atom_site_fract_y
  _atom_site_fract_z
  _atom_site_occupancy
  Na  Na1       1.0  0.78377  0.17973  0.08761  1.0000
  Na  Na2       1.0  0.21623  0.82027  0.91239  1.0000
  H   H1        1.0  0.69930  0.23559  0.64714  1.0000
  H   H2        1.0  0.30070  0.76441  0.35286  1.0000
  H   H3        1.0  0.24507  0.26618  0.39927  1.0000
  H   H4        1.0  0.75493  0.73381  0.60073  1.0000
  H   H5        1.0  0.97622  0.31941  0.58611  1.0000
  H   H6        1.0  0.02378  0.68059  0.41389  1.0000
  H   H7        1.0  0.76473  0.52449  0.93146  1.0000
  H   H8        1.0  0.23527  0.47551  0.06854  1.0000
  H   H9        1.0  0.93399  0.16402  0.33876  1.0000
  H   H10       1.0  0.06601  0.83598  0.66124  1.0000
  H   H11       1.0  0.20143  0.01580  0.17757  1.0000
  H   H12       1.0  0.79856  0.98420  0.82243  1.0000
  H   H13       1.0  0.10965  0.26212  0.19519  1.0000
  H   H14       1.0  0.89035  0.73788  0.80481  1.0000
  C   C1        1.0  0.18640  0.31096  0.72254  1.0000
  C   C2        1.0  0.81360  0.68904  0.27746  1.0000
  C   C3        1.0  0.39190  0.28533  0.73997  1.0000
  C   C4        1.0  0.60810  0.71467  0.26003  1.0000
  C   C5        1.0  0.54086  0.25394  0.63416  1.0000
  C   C6        1.0  0.45914  0.74606  0.36583  1.0000
  C   C7        1.0  0.48678  0.25002  0.51149  1.0000
  C   C8        1.0  0.51322  0.74998  0.48851  1.0000
  C   C9        1.0  0.28301  0.27371  0.49520  1.0000
  C   C10       1.0  0.71700  0.72629  0.50480  1.0000
  C   C11       1.0  0.13336  0.30409  0.60019  1.0000
  C   C12       1.0  0.86663  0.69591  0.39981  1.0000
  C   C13       1.0  0.02823  0.33054  0.83538  1.0000
  C   C14       1.0  0.97177  0.66945  0.16462  1.0000
  C   C15       1.0  0.44508  0.30472  0.87103  1.0000
  C   C16       1.0  0.55492  0.69528  0.12897  1.0000
  C   C17       1.0  0.64171  0.21743  0.39635  1.0000
  C   C18       1.0  0.35830  0.78257  0.60365  1.0000
  O   O1        1.0  0.05425  0.19069  0.91358  1.0000
  O   O2        1.0  0.94575  0.80932  0.08642  1.0000
  O   O3        1.0  0.85768  0.50486  0.84047  1.0000
  O   O4        1.0  0.14232  0.49514  0.15953  1.0000
  O   O5        1.0  0.59420  0.21379  0.28788  1.0000
  O   O6        1.0  0.40580  0.78620  0.71212  1.0000
  O   O7        1.0  0.83216  0.19177  0.42165  1.0000
  O   O8        1.0  0.16784  0.80823  0.57835  1.0000
  O   O9        1.0  0.30711  0.45677  0.93781  1.0000
  O   O10       1.0  0.69289  0.54323  0.06219  1.0000
  O   O11       1.0  0.61517  0.17917  0.90637  1.0000
  O   O12       1.0  0.38484  0.82083  0.09363  1.0000
  O   O13       1.0  0.07527  0.13983  0.21297  1.0000
  O   O14       1.0  0.92473  0.86017  0.78703  1.0000
