data_image0
_chemical_formula_structural       Co2H40C32N4O12
_chemical_formula_sum              "Co2 H40 C32 N4 O12"
_cell_length_a       8.65497
_cell_length_b       9.39039
_cell_length_c       9.88512
_cell_angle_alpha    103.153
_cell_angle_beta     90.5073
_cell_angle_gamma    90.4707

_space_group_name_H-M_alt    "P 1"
_space_group_IT_number       1

loop_
  _space_group_symop_operation_xyz
  'x, y, z'

loop_
  _atom_site_type_symbol
  _atom_site_label
  _atom_site_symmetry_multiplicity
  _atom_site_fract_x
  _atom_site_fract_y
  _atom_site_fract_z
  _atom_site_occupancy
  Co  Co1       1.0  0.00000  0.00000  0.00000  1.0000
  Co  Co2       1.0  0.50000  0.50000  0.50000  1.0000
  H   H1        1.0  0.88946  0.82765  0.79072  1.0000
  H   H2        1.0  0.38273  0.66724  0.70014  1.0000
  H   H3        1.0  0.11054  0.17235  0.20928  1.0000
  H   H4        1.0  0.61726  0.33276  0.29986  1.0000
  H   H5        1.0  0.06158  0.82667  0.72750  1.0000
  H   H6        1.0  0.56080  0.67136  0.76172  1.0000
  H   H7        1.0  0.93842  0.17333  0.27251  1.0000
  H   H8        1.0  0.43919  0.32864  0.23828  1.0000
  H   H9        1.0  0.71568  0.05997  0.37239  1.0000
  H   H10       1.0  0.20777  0.45689  0.12483  1.0000
  H   H11       1.0  0.28432  0.94003  0.62761  1.0000
  H   H12       1.0  0.79223  0.54311  0.87517  1.0000
  H   H13       1.0  0.71814  0.74163  0.62514  1.0000
  H   H14       1.0  0.21549  0.77942  0.87574  1.0000
  H   H15       1.0  0.28186  0.25837  0.37486  1.0000
  H   H16       1.0  0.78451  0.22058  0.12426  1.0000
  H   H17       1.0  0.53993  0.70600  0.04047  1.0000
  H   H18       1.0  0.03519  0.80066  0.46137  1.0000
  H   H19       1.0  0.46007  0.29400  0.95953  1.0000
  H   H20       1.0  0.96481  0.19934  0.53862  1.0000
  H   H21       1.0  0.45762  0.83726  0.96404  1.0000
  H   H22       1.0  0.94764  0.66403  0.52780  1.0000
  H   H23       1.0  0.54238  0.16274  0.03596  1.0000
  H   H24       1.0  0.05236  0.33597  0.47220  1.0000
  H   H25       1.0  0.43810  0.66535  0.27468  1.0000
  H   H26       1.0  0.93467  0.84926  0.22048  1.0000
  H   H27       1.0  0.56190  0.33465  0.72532  1.0000
  H   H28       1.0  0.06533  0.15074  0.77952  1.0000
  H   H29       1.0  0.81542  0.97644  0.58358  1.0000
  H   H30       1.0  0.31005  0.54493  0.91780  1.0000
  H   H31       1.0  0.18458  0.02356  0.41642  1.0000
  H   H32       1.0  0.68995  0.45507  0.08220  1.0000
  H   H33       1.0  0.37454  0.91248  0.19012  1.0000
  H   H34       1.0  0.86494  0.60150  0.29911  1.0000
  H   H35       1.0  0.62546  0.08752  0.80988  1.0000
  H   H36       1.0  0.13506  0.39850  0.70089  1.0000
  H   H37       1.0  0.53347  0.03092  0.19018  1.0000
  H   H38       1.0  0.01900  0.47995  0.29886  1.0000
  H   H39       1.0  0.46654  0.96908  0.80983  1.0000
  H   H40       1.0  0.98100  0.52005  0.70114  1.0000
  C   C1        1.0  0.69992  0.85049  0.97864  1.0000
  C   C2        1.0  0.18927  0.64684  0.51616  1.0000
  C   C3        1.0  0.30008  0.14951  0.02136  1.0000
  C   C4        1.0  0.81073  0.35316  0.48384  1.0000
  C   C5        1.0  0.56975  0.86892  0.30603  1.0000
  C   C6        1.0  0.06354  0.64644  0.18970  1.0000
  C   C7        1.0  0.43025  0.13108  0.69398  1.0000
  C   C8        1.0  0.93646  0.35356  0.81030  1.0000
  C   C9        1.0  0.67737  0.95680  0.39450  1.0000
  C   C10       1.0  0.17112  0.56046  0.10327  1.0000
  C   C11       1.0  0.32263  0.04320  0.60550  1.0000
  C   C12       1.0  0.82888  0.43954  0.89673  1.0000
  C   C13       1.0  0.67838  0.78072  0.53569  1.0000
  C   C14       1.0  0.17540  0.73894  0.96382  1.0000
  C   C15       1.0  0.32162  0.21928  0.46431  1.0000
  C   C16       1.0  0.82460  0.26106  0.03618  1.0000
  C   C17       1.0  0.54540  0.82321  0.04080  1.0000
  C   C18       1.0  0.03668  0.68211  0.45469  1.0000
  C   C19       1.0  0.45460  0.17679  0.95920  1.0000
  C   C20       1.0  0.96332  0.31789  0.54531  1.0000
  C   C21       1.0  0.52275  0.73813  0.33881  1.0000
  C   C22       1.0  0.01819  0.77762  0.15765  1.0000
  C   C23       1.0  0.47725  0.26188  0.66119  1.0000
  C   C24       1.0  0.98181  0.22238  0.84235  1.0000
  C   C25       1.0  0.73172  0.91235  0.51110  1.0000
  C   C26       1.0  0.22703  0.60776  0.98912  1.0000
  C   C27       1.0  0.26829  0.08764  0.48890  1.0000
  C   C28       1.0  0.77297  0.39224  0.01088  1.0000
  C   C29       1.0  0.50131  0.91620  0.18304  1.0000
  C   C30       1.0  0.99136  0.59569  0.30894  1.0000
  C   C31       1.0  0.49869  0.08381  0.81696  1.0000
  C   C32       1.0  0.00864  0.40431  0.69106  1.0000
  N   N1        1.0  0.57582  0.69436  0.45121  1.0000
  N   N2        1.0  0.07207  0.82340  0.04639  1.0000
  N   N3        1.0  0.42418  0.30564  0.54879  1.0000
  N   N4        1.0  0.92794  0.17659  0.95361  1.0000
  O   O1        1.0  0.72820  0.77009  0.85933  1.0000
  O   O2        1.0  0.22215  0.72234  0.63828  1.0000
  O   O3        1.0  0.27180  0.22991  0.14067  1.0000
  O   O4        1.0  0.77785  0.27766  0.36172  1.0000
  O   O5        1.0  0.78850  0.95165  0.04723  1.0000
  O   O6        1.0  0.27233  0.54512  0.44764  1.0000
  O   O7        1.0  0.21150  0.04835  0.95277  1.0000
  O   O8        1.0  0.72767  0.45488  0.55236  1.0000
  O   O9        1.0  0.97623  0.89036  0.77090  1.0000
  O   O10       1.0  0.47520  0.60739  0.71468  1.0000
  O   O11       1.0  0.02377  0.10964  0.22910  1.0000
  O   O12       1.0  0.52480  0.39261  0.28532  1.0000
