data_image0
_chemical_formula_structural       Ni2H40C32N4O12
_chemical_formula_sum              "Ni2 H40 C32 N4 O12"
_cell_length_a       8.4091
_cell_length_b       9.21024
_cell_length_c       10.3613
_cell_angle_alpha    97.5848
_cell_angle_beta     89.9998
_cell_angle_gamma    90.0003

_space_group_name_H-M_alt    "P 1"
_space_group_IT_number       1

loop_
  _space_group_symop_operation_xyz
  'x, y, z'

loop_
  _atom_site_type_symbol
  _atom_site_label
  _atom_site_symmetry_multiplicity
  _atom_site_fract_x
  _atom_site_fract_y
  _atom_site_fract_z
  _atom_site_occupancy
  Ni  Ni1       1.0  1.00000  0.50000  0.00000  1.0000
  Ni  Ni2       1.0  0.50000  0.00000  0.50000  1.0000
  H   H1        1.0  0.89971  0.65527  0.21840  1.0000
  H   H2        1.0  0.39972  0.84474  0.28160  1.0000
  H   H3        1.0  0.10028  0.34474  0.78160  1.0000
  H   H4        1.0  0.60029  0.15527  0.71840  1.0000
  H   H5        1.0  0.05880  0.68157  0.30264  1.0000
  H   H6        1.0  0.55880  0.81844  0.19735  1.0000
  H   H7        1.0  0.94120  0.31843  0.69735  1.0000
  H   H8        1.0  0.44120  0.18156  0.80265  1.0000
  H   H9        1.0  0.44462  0.84773  0.72003  1.0000
  H   H10       1.0  0.94461  0.65228  0.77997  1.0000
  H   H11       1.0  0.55538  0.15227  0.27997  1.0000
  H   H12       1.0  0.05538  0.34773  0.22004  1.0000
  H   H13       1.0  0.70430  0.44084  0.63571  1.0000
  H   H14       1.0  0.20430  0.05916  0.86428  1.0000
  H   H15       1.0  0.29571  0.55916  0.36428  1.0000
  H   H16       1.0  0.79570  0.94084  0.13571  1.0000
  H   H17       1.0  0.79881  0.53212  0.42834  1.0000
  H   H18       1.0  0.29880  0.96788  0.07166  1.0000
  H   H19       1.0  0.20120  0.46789  0.57166  1.0000
  H   H20       1.0  0.70120  0.03212  0.92834  1.0000
  H   H21       1.0  0.70196  0.77137  0.37707  1.0000
  H   H22       1.0  0.20196  0.72863  0.12293  1.0000
  H   H23       1.0  0.29803  0.22864  0.62293  1.0000
  H   H24       1.0  0.79805  0.27137  0.87707  1.0000
  H   H25       1.0  0.36641  0.58719  0.80742  1.0000
  H   H26       1.0  0.86640  0.91280  0.69257  1.0000
  H   H27       1.0  0.63360  0.41281  0.19258  1.0000
  H   H28       1.0  0.13359  0.08719  0.30742  1.0000
  H   H29       1.0  0.52939  0.46938  0.81568  1.0000
  H   H30       1.0  0.02938  0.03061  0.68431  1.0000
  H   H31       1.0  0.47062  0.53061  0.18431  1.0000
  H   H32       1.0  0.97061  0.96938  0.31569  1.0000
  H   H33       1.0  0.45024  0.65929  0.01827  1.0000
  H   H34       1.0  0.95024  0.84070  0.48173  1.0000
  H   H35       1.0  0.54977  0.34071  0.98173  1.0000
  H   H36       1.0  0.04976  0.15930  0.51827  1.0000
  H   H37       1.0  0.54076  0.79209  0.93933  1.0000
  H   H38       1.0  0.04076  0.70790  0.56067  1.0000
  H   H39       1.0  0.45925  0.20790  0.06066  1.0000
  H   H40       1.0  0.95924  0.29210  0.43934  1.0000
  C   C1        1.0  0.52117  0.77138  0.65942  1.0000
  C   C2        1.0  0.02116  0.72863  0.84058  1.0000
  C   C3        1.0  0.47883  0.22863  0.34059  1.0000
  C   C4        1.0  0.97882  0.27137  0.15941  1.0000
  C   C5        1.0  0.56545  0.63596  0.69502  1.0000
  C   C6        1.0  0.06544  0.86405  0.80498  1.0000
  C   C7        1.0  0.43457  0.36404  0.30498  1.0000
  C   C8        1.0  0.93455  0.13595  0.19502  1.0000
  C   C9        1.0  0.66702  0.54737  0.61147  1.0000
  C   C10       1.0  0.16703  0.95264  0.88853  1.0000
  C   C11       1.0  0.33298  0.45264  0.38853  1.0000
  C   C12       1.0  0.83298  0.04735  0.11147  1.0000
  C   C13       1.0  0.71765  0.59491  0.49619  1.0000
  C   C14       1.0  0.21764  0.90509  0.00381  1.0000
  C   C15       1.0  0.28235  0.40510  0.50382  1.0000
  C   C16       1.0  0.78235  0.09490  0.99617  1.0000
  C   C17       1.0  0.66622  0.72977  0.46619  1.0000
  C   C18       1.0  0.16621  0.77023  0.03381  1.0000
  C   C19       1.0  0.33378  0.27023  0.53381  1.0000
  C   C20       1.0  0.83379  0.22977  0.96618  1.0000
  C   C21       1.0  0.49695  0.58465  0.81547  1.0000
  C   C22       1.0  0.99694  0.91535  0.68453  1.0000
  C   C23       1.0  0.50305  0.41536  0.18454  1.0000
  C   C24       1.0  0.00305  0.08464  0.31547  1.0000
  C   C25       1.0  0.54223  0.67371  0.94578  1.0000
  C   C26       1.0  0.04223  0.82628  0.55422  1.0000
  C   C27       1.0  0.45777  0.32629  0.05422  1.0000
  C   C28       1.0  0.95777  0.17371  0.44578  1.0000
  C   C29       1.0  0.69931  0.64009  0.00854  1.0000
  C   C30       1.0  0.19931  0.85990  0.49146  1.0000
  C   C31       1.0  0.30069  0.35991  0.99147  1.0000
  C   C32       1.0  0.80068  0.14009  0.50854  1.0000
  N   N1        1.0  0.57017  0.81694  0.54716  1.0000
  N   N2        1.0  0.07018  0.68307  0.95285  1.0000
  N   N3        1.0  0.42982  0.18307  0.45285  1.0000
  N   N4        1.0  0.92983  0.31693  0.04716  1.0000
  O   O1        1.0  0.97142  0.61209  0.27850  1.0000
  O   O2        1.0  0.47144  0.88791  0.22148  1.0000
  O   O3        1.0  0.02857  0.38790  0.72149  1.0000
  O   O4        1.0  0.52857  0.11209  0.77851  1.0000
  O   O5        1.0  0.78820  0.54214  0.94332  1.0000
  O   O6        1.0  0.28819  0.95785  0.55669  1.0000
  O   O7        1.0  0.21181  0.45786  0.05670  1.0000
  O   O8        1.0  0.71180  0.04215  0.44332  1.0000
  O   O9        1.0  0.73160  0.70732  0.11958  1.0000
  O   O10       1.0  0.23161  0.79267  0.38043  1.0000
  O   O11       1.0  0.26839  0.29268  0.88043  1.0000
  O   O12       1.0  0.76839  0.20732  0.61957  1.0000
