data_image0
_chemical_formula_structural       Ag8H24C16N16O20
_chemical_formula_sum              "Ag8 H24 C16 N16 O20"
_cell_length_a       6.96023
_cell_length_b       11.2654
_cell_length_c       11.9153
_cell_angle_alpha    89.9998
_cell_angle_beta     90
_cell_angle_gamma    103.946

_space_group_name_H-M_alt    "P 1"
_space_group_IT_number       1

loop_
  _space_group_symop_operation_xyz
  'x, y, z'

loop_
  _atom_site_type_symbol
  _atom_site_label
  _atom_site_symmetry_multiplicity
  _atom_site_fract_x
  _atom_site_fract_y
  _atom_site_fract_z
  _atom_site_occupancy
  Ag  Ag1       1.0  0.41190  0.72054  0.09217  1.0000
  Ag  Ag2       1.0  0.08810  0.77946  0.59217  1.0000
  Ag  Ag3       1.0  0.58809  0.27946  0.90783  1.0000
  Ag  Ag4       1.0  0.91190  0.22054  0.40783  1.0000
  Ag  Ag5       1.0  0.07949  0.71863  0.23223  1.0000
  Ag  Ag6       1.0  0.42051  0.78137  0.73223  1.0000
  Ag  Ag7       1.0  0.92051  0.28137  0.76777  1.0000
  Ag  Ag8       1.0  0.57948  0.21863  0.26777  1.0000
  H   H1        1.0  0.71562  0.61197  0.03655  1.0000
  H   H2        1.0  0.78438  0.88803  0.53655  1.0000
  H   H3        1.0  0.28438  0.38802  0.96346  1.0000
  H   H4        1.0  0.21562  0.11198  0.46345  1.0000
  H   H5        1.0  0.56574  0.52308  0.11810  1.0000
  H   H6        1.0  0.93426  0.97692  0.61810  1.0000
  H   H7        1.0  0.43425  0.47692  0.88190  1.0000
  H   H8        1.0  0.06575  0.02309  0.38190  1.0000
  H   H9        1.0  0.16242  0.37170  0.52786  1.0000
  H   H10       1.0  0.33758  0.12831  0.02786  1.0000
  H   H11       1.0  0.83759  0.62830  0.47214  1.0000
  H   H12       1.0  0.66242  0.87169  0.97214  1.0000
  H   H13       1.0  0.35467  0.39130  0.62942  1.0000
  H   H14       1.0  0.14534  0.10870  0.12942  1.0000
  H   H15       1.0  0.64534  0.60870  0.37058  1.0000
  H   H16       1.0  0.85466  0.89130  0.87058  1.0000
  H   H17       1.0  0.47051  0.59615  0.56185  1.0000
  H   H18       1.0  0.02949  0.90386  0.06185  1.0000
  H   H19       1.0  0.52949  0.40386  0.43815  1.0000
  H   H20       1.0  0.97051  0.09614  0.93815  1.0000
  H   H21       1.0  0.25560  0.58186  0.47688  1.0000
  H   H22       1.0  0.24440  0.91815  0.97688  1.0000
  H   H23       1.0  0.74440  0.41814  0.52312  1.0000
  H   H24       1.0  0.75560  0.08185  0.02312  1.0000
  C   C1        1.0  0.97992  0.58409  0.80153  1.0000
  C   C2        1.0  0.52008  0.91591  0.30153  1.0000
  C   C3        1.0  0.02008  0.41591  0.19846  1.0000
  C   C4        1.0  0.47992  0.08409  0.69847  1.0000
  C   C5        1.0  0.10030  0.54819  0.71071  1.0000
  C   C6        1.0  0.39970  0.95180  0.21071  1.0000
  C   C7        1.0  0.89969  0.45181  0.28929  1.0000
  C   C8        1.0  0.60030  0.04819  0.78929  1.0000
  C   C9        1.0  0.23531  0.43057  0.59704  1.0000
  C   C10       1.0  0.26469  0.06944  0.09704  1.0000
  C   C11       1.0  0.76469  0.56944  0.40296  1.0000
  C   C12       1.0  0.73531  0.93057  0.90296  1.0000
  C   C13       1.0  0.30907  0.56564  0.56073  1.0000
  C   C14       1.0  0.19093  0.93437  0.06072  1.0000
  C   C15       1.0  0.69093  0.43436  0.43927  1.0000
  C   C16       1.0  0.80907  0.06563  0.93927  1.0000
  N   N1        1.0  0.78278  0.58161  0.77903  1.0000
  N   N2        1.0  0.71723  0.91839  0.27904  1.0000
  N   N3        1.0  0.21722  0.41839  0.22097  1.0000
  N   N4        1.0  0.28277  0.08161  0.72097  1.0000
  N   N5        1.0  0.06748  0.62049  0.90380  1.0000
  N   N6        1.0  0.43253  0.87951  0.40380  1.0000
  N   N7        1.0  0.93252  0.37951  0.09620  1.0000
  N   N8        1.0  0.56747  0.12049  0.59620  1.0000
  N   N9        1.0  0.09244  0.43338  0.68791  1.0000
  N   N10       1.0  0.40755  0.06662  0.18791  1.0000
  N   N11       1.0  0.90755  0.56661  0.31209  1.0000
  N   N12       1.0  0.59245  0.93338  0.81209  1.0000
  N   N13       1.0  0.22302  0.63452  0.64657  1.0000
  N   N14       1.0  0.27699  0.86548  0.14656  1.0000
  N   N15       1.0  0.77698  0.36548  0.35343  1.0000
  N   N16       1.0  0.72301  0.13452  0.85343  1.0000
  O   O1        1.0  0.66638  0.60379  0.85331  1.0000
  O   O2        1.0  0.83362  0.89621  0.35332  1.0000
  O   O3        1.0  0.33362  0.39621  0.14669  1.0000
  O   O4        1.0  0.16638  0.10379  0.64669  1.0000
  O   O5        1.0  0.72647  0.55570  0.67941  1.0000
  O   O6        1.0  0.77354  0.94431  0.17941  1.0000
  O   O7        1.0  0.27353  0.44430  0.32059  1.0000
  O   O8        1.0  0.22647  0.05569  0.82059  1.0000
  O   O9        1.0  0.97847  0.65307  0.98583  1.0000
  O   O10       1.0  0.52153  0.84693  0.48584  1.0000
  O   O11       1.0  0.02154  0.34693  0.01417  1.0000
  O   O12       1.0  0.47846  0.15307  0.51417  1.0000
  O   O13       1.0  0.25215  0.62280  0.91051  1.0000
  O   O14       1.0  0.24785  0.87720  0.41051  1.0000
  O   O15       1.0  0.74785  0.37719  0.08949  1.0000
  O   O16       1.0  0.75214  0.12281  0.58949  1.0000
  O   O17       1.0  0.62677  0.60951  0.10159  1.0000
  O   O18       1.0  0.87323  0.89049  0.60159  1.0000
  O   O19       1.0  0.37322  0.39048  0.89841  1.0000
  O   O20       1.0  0.12678  0.10952  0.39841  1.0000
