data_image0
_chemical_formula_structural       Tl4H40C32N4O8
_chemical_formula_sum              "Tl4 H40 C32 N4 O8"
_cell_length_a       7.7119
_cell_length_b       8.96272
_cell_length_c       14.5094
_cell_angle_alpha    89.9985
_cell_angle_beta     90.0004
_cell_angle_gamma    111.904

_space_group_name_H-M_alt    "P 1"
_space_group_IT_number       1

loop_
  _space_group_symop_operation_xyz
  'x, y, z'

loop_
  _atom_site_type_symbol
  _atom_site_label
  _atom_site_symmetry_multiplicity
  _atom_site_fract_x
  _atom_site_fract_y
  _atom_site_fract_z
  _atom_site_occupancy
  Tl  Tl1       1.0  0.40000  0.78740  0.09312  1.0000
  Tl  Tl2       1.0  0.09999  0.21261  0.59313  1.0000
  Tl  Tl3       1.0  0.59998  0.21260  0.90688  1.0000
  Tl  Tl4       1.0  0.90001  0.78740  0.40687  1.0000
  H   H1        1.0  0.53196  0.94743  0.75507  1.0000
  H   H2        1.0  0.96806  0.05255  0.25508  1.0000
  H   H3        1.0  0.46805  0.05257  0.24494  1.0000
  H   H4        1.0  0.03195  0.94744  0.74492  1.0000
  H   H5        1.0  0.75696  0.82326  0.13619  1.0000
  H   H6        1.0  0.74304  0.17674  0.63621  1.0000
  H   H7        1.0  0.24303  0.17674  0.86380  1.0000
  H   H8        1.0  0.25697  0.82325  0.36381  1.0000
  H   H9        1.0  0.72510  0.82496  0.01380  1.0000
  H   H10       1.0  0.77488  0.17505  0.51381  1.0000
  H   H11       1.0  0.27487  0.17504  0.98619  1.0000
  H   H12       1.0  0.22511  0.82495  0.48620  1.0000
  H   H13       1.0  0.64352  0.63670  0.07520  1.0000
  H   H14       1.0  0.85647  0.36330  0.57521  1.0000
  H   H15       1.0  0.35645  0.36329  0.92479  1.0000
  H   H16       1.0  0.14353  0.63671  0.42480  1.0000
  H   H17       1.0  0.18485  0.45240  0.80023  1.0000
  H   H18       1.0  0.31515  0.54761  0.30023  1.0000
  H   H19       1.0  0.81514  0.54760  0.19978  1.0000
  H   H20       1.0  0.68485  0.45240  0.69977  1.0000
  H   H21       1.0  0.13572  0.81504  0.20730  1.0000
  H   H22       1.0  0.36429  0.18496  0.70730  1.0000
  H   H23       1.0  0.86428  0.18497  0.79271  1.0000
  H   H24       1.0  0.63573  0.81505  0.29270  1.0000
  H   H25       1.0  0.03562  0.74807  0.09613  1.0000
  H   H26       1.0  0.46437  0.25194  0.59612  1.0000
  H   H27       1.0  0.96436  0.25194  0.90388  1.0000
  H   H28       1.0  0.53564  0.74808  0.40387  1.0000
  H   H29       1.0  0.17788  0.95751  0.11468  1.0000
  H   H30       1.0  0.32213  0.04250  0.61469  1.0000
  H   H31       1.0  0.82213  0.04250  0.88532  1.0000
  H   H32       1.0  0.67788  0.95751  0.38531  1.0000
  H   H33       1.0  0.54533  0.88141  0.58668  1.0000
  H   H34       1.0  0.95470  0.11856  0.08667  1.0000
  H   H35       1.0  0.45469  0.11858  0.41334  1.0000
  H   H36       1.0  0.04532  0.88142  0.91333  1.0000
  H   H37       1.0  0.37387  0.59601  0.53525  1.0000
  H   H38       1.0  0.12615  0.40398  0.03524  1.0000
  H   H39       1.0  0.62618  0.40398  0.46476  1.0000
  H   H40       1.0  0.87383  0.59601  0.96475  1.0000
  C   C1        1.0  0.35855  0.70392  0.79010  1.0000
  C   C2        1.0  0.14145  0.29607  0.29010  1.0000
  C   C3        1.0  0.64145  0.29607  0.20990  1.0000
  C   C4        1.0  0.85854  0.70391  0.70989  1.0000
  C   C5        1.0  0.45881  0.82616  0.72881  1.0000
  C   C6        1.0  0.04121  0.17383  0.22881  1.0000
  C   C7        1.0  0.54120  0.17383  0.27120  1.0000
  C   C8        1.0  0.95881  0.82616  0.77119  1.0000
  C   C9        1.0  0.66581  0.76459  0.07843  1.0000
  C   C10       1.0  0.83420  0.23541  0.57844  1.0000
  C   C11       1.0  0.33418  0.23540  0.92157  1.0000
  C   C12       1.0  0.16582  0.76459  0.42157  1.0000
  C   C13       1.0  0.26611  0.54963  0.75419  1.0000
  C   C14       1.0  0.23386  0.45037  0.25419  1.0000
  C   C15       1.0  0.73387  0.45036  0.24581  1.0000
  C   C16       1.0  0.76613  0.54964  0.74579  1.0000
  C   C17       1.0  0.35141  0.73515  0.89146  1.0000
  C   C18       1.0  0.14860  0.26485  0.39145  1.0000
  C   C19       1.0  0.64860  0.26487  0.10854  1.0000
  C   C20       1.0  0.85140  0.73514  0.60854  1.0000
  C   C21       1.0  0.15575  0.83330  0.13276  1.0000
  C   C22       1.0  0.34423  0.16670  0.63276  1.0000
  C   C23       1.0  0.84423  0.16670  0.86725  1.0000
  C   C24       1.0  0.65576  0.83331  0.36724  1.0000
  C   C25       1.0  0.46516  0.78989  0.63592  1.0000
  C   C26       1.0  0.03485  0.21011  0.13592  1.0000
  C   C27       1.0  0.53485  0.21012  0.36409  1.0000
  C   C28       1.0  0.96514  0.78987  0.86408  1.0000
  C   C29       1.0  0.37105  0.63174  0.60686  1.0000
  C   C30       1.0  0.12896  0.36826  0.10685  1.0000
  C   C31       1.0  0.62898  0.36826  0.39315  1.0000
  C   C32       1.0  0.87101  0.63173  0.89314  1.0000
  N   N1        1.0  0.27142  0.51372  0.66479  1.0000
  N   N2        1.0  0.22858  0.48628  0.16478  1.0000
  N   N3        1.0  0.72858  0.48628  0.33521  1.0000
  N   N4        1.0  0.77140  0.51371  0.83520  1.0000
  O   O1        1.0  0.41489  0.88052  0.91928  1.0000
  O   O2        1.0  0.08512  0.11948  0.41928  1.0000
  O   O3        1.0  0.58510  0.11950  0.08071  1.0000
  O   O4        1.0  0.91489  0.88052  0.58071  1.0000
  O   O5        1.0  0.28487  0.61488  0.94512  1.0000
  O   O6        1.0  0.21514  0.38512  0.44512  1.0000
  O   O7        1.0  0.71516  0.38514  0.05489  1.0000
  O   O8        1.0  0.78487  0.61488  0.55487  1.0000
