data_image0
_chemical_formula_structural       Tl4H40C32N4O12
_chemical_formula_sum              "Tl4 H40 C32 N4 O12"
_cell_length_a       8.4338
_cell_length_b       8.43373
_cell_length_c       15.0385
_cell_angle_alpha    98.1771
_cell_angle_beta     98.1769
_cell_angle_gamma    103.037

_space_group_name_H-M_alt    "P 1"
_space_group_IT_number       1

loop_
  _space_group_symop_operation_xyz
  'x, y, z'

loop_
  _atom_site_type_symbol
  _atom_site_label
  _atom_site_symmetry_multiplicity
  _atom_site_fract_x
  _atom_site_fract_y
  _atom_site_fract_z
  _atom_site_occupancy
  Tl  Tl1       1.0  0.36080  0.68061  0.99333  1.0000
  Tl  Tl2       1.0  0.31939  0.63920  0.50667  1.0000
  Tl  Tl3       1.0  0.63920  0.31939  0.00667  1.0000
  Tl  Tl4       1.0  0.68061  0.36080  0.49333  1.0000
  H   H1        1.0  0.37444  0.93139  0.68653  1.0000
  H   H2        1.0  0.06861  0.62555  0.81346  1.0000
  H   H3        1.0  0.62556  0.06861  0.31347  1.0000
  H   H4        1.0  0.93140  0.37445  0.18654  1.0000
  H   H5        1.0  0.45690  0.89183  0.88292  1.0000
  H   H6        1.0  0.10817  0.54311  0.61708  1.0000
  H   H7        1.0  0.54311  0.10816  0.11708  1.0000
  H   H8        1.0  0.89183  0.45689  0.38292  1.0000
  H   H9        1.0  0.53842  0.71364  0.85949  1.0000
  H   H10       1.0  0.28636  0.46158  0.64052  1.0000
  H   H11       1.0  0.46158  0.28635  0.14051  1.0000
  H   H12       1.0  0.71365  0.53842  0.35948  1.0000
  H   H13       1.0  0.63814  0.87410  0.95672  1.0000
  H   H14       1.0  0.12590  0.36186  0.54328  1.0000
  H   H15       1.0  0.36186  0.12590  0.04328  1.0000
  H   H16       1.0  0.87410  0.63814  0.45672  1.0000
  H   H17       1.0  0.29598  0.62470  0.15902  1.0000
  H   H18       1.0  0.37530  0.70403  0.34098  1.0000
  H   H19       1.0  0.70403  0.37530  0.84098  1.0000
  H   H20       1.0  0.62470  0.29598  0.65902  1.0000
  H   H21       1.0  0.18768  0.45077  0.07204  1.0000
  H   H22       1.0  0.54923  0.81232  0.42796  1.0000
  H   H23       1.0  0.81232  0.54923  0.92796  1.0000
  H   H24       1.0  0.45077  0.18768  0.57204  1.0000
  H   H25       1.0  0.10624  0.62984  0.08839  1.0000
  H   H26       1.0  0.37017  0.89376  0.41161  1.0000
  H   H27       1.0  0.89376  0.37016  0.91161  1.0000
  H   H28       1.0  0.62984  0.10624  0.58839  1.0000
  H   H29       1.0  0.43188  0.14552  0.81344  1.0000
  H   H30       1.0  0.85447  0.56811  0.68656  1.0000
  H   H31       1.0  0.56811  0.85448  0.18656  1.0000
  H   H32       1.0  0.14553  0.43189  0.31344  1.0000
  H   H33       1.0  0.92990  0.03979  0.57791  1.0000
  H   H34       1.0  0.96021  0.07011  0.92209  1.0000
  H   H35       1.0  0.07010  0.96021  0.42209  1.0000
  H   H36       1.0  0.03979  0.92990  0.07791  1.0000
  H   H37       1.0  0.98419  0.27330  0.70952  1.0000
  H   H38       1.0  0.72670  0.01582  0.79048  1.0000
  H   H39       1.0  0.01581  0.72670  0.29048  1.0000
  H   H40       1.0  0.27329  0.98418  0.20952  1.0000
  C   C1        1.0  0.52025  0.80695  0.91285  1.0000
  C   C2        1.0  0.19306  0.47976  0.58715  1.0000
  C   C3        1.0  0.47976  0.19305  0.08715  1.0000
  C   C4        1.0  0.80695  0.52025  0.41285  1.0000
  C   C5        1.0  0.21901  0.58584  0.09074  1.0000
  C   C6        1.0  0.41416  0.78099  0.40926  1.0000
  C   C7        1.0  0.78099  0.41416  0.90926  1.0000
  C   C8        1.0  0.58584  0.21901  0.59074  1.0000
  C   C9        1.0  0.25303  0.37421  0.84789  1.0000
  C   C10       1.0  0.62579  0.74697  0.65211  1.0000
  C   C11       1.0  0.74697  0.62579  0.15211  1.0000
  C   C12       1.0  0.37421  0.25303  0.34789  1.0000
  C   C13       1.0  0.21270  0.22883  0.77240  1.0000
  C   C14       1.0  0.77117  0.78730  0.72760  1.0000
  C   C15       1.0  0.78731  0.77117  0.22760  1.0000
  C   C16       1.0  0.22883  0.21270  0.27240  1.0000
  C   C17       1.0  0.31819  0.12663  0.76437  1.0000
  C   C18       1.0  0.87337  0.68180  0.73563  1.0000
  C   C19       1.0  0.68181  0.87337  0.23563  1.0000
  C   C20       1.0  0.12663  0.31820  0.26437  1.0000
  C   C21       1.0  0.14882  0.95984  0.62362  1.0000
  C   C22       1.0  0.04016  0.85118  0.87638  1.0000
  C   C23       1.0  0.85118  0.04015  0.37638  1.0000
  C   C24       1.0  0.95984  0.14883  0.12362  1.0000
  C   C25       1.0  0.03665  0.06378  0.63239  1.0000
  C   C26       1.0  0.93621  0.96335  0.86760  1.0000
  C   C27       1.0  0.96335  0.93622  0.36761  1.0000
  C   C28       1.0  0.06378  0.03665  0.13239  1.0000
  C   C29       1.0  0.06874  0.19339  0.70389  1.0000
  C   C30       1.0  0.80661  0.93126  0.79611  1.0000
  C   C31       1.0  0.93126  0.80660  0.29611  1.0000
  C   C32       1.0  0.19339  0.06874  0.20389  1.0000
  N   N1        1.0  0.28635  0.99848  0.69400  1.0000
  N   N2        1.0  0.00151  0.71364  0.80600  1.0000
  N   N3        1.0  0.71364  0.00152  0.30600  1.0000
  N   N4        1.0  0.99849  0.28636  0.19400  1.0000
  O   O1        1.0  0.16120  0.47566  0.84667  1.0000
  O   O2        1.0  0.52434  0.83881  0.65333  1.0000
  O   O3        1.0  0.83880  0.52434  0.15332  1.0000
  O   O4        1.0  0.47565  0.16119  0.34668  1.0000
  O   O5        1.0  0.37812  0.39396  0.91068  1.0000
  O   O6        1.0  0.60604  0.62188  0.58932  1.0000
  O   O7        1.0  0.62188  0.60604  0.08932  1.0000
  O   O8        1.0  0.39396  0.37812  0.41068  1.0000
  O   O9        1.0  0.13190  0.84231  0.55850  1.0000
  O   O10       1.0  0.15768  0.86810  0.94149  1.0000
  O   O11       1.0  0.86810  0.15769  0.44150  1.0000
  O   O12       1.0  0.84232  0.13191  0.05851  1.0000
