data_image0
_chemical_formula_structural       Ba2H28C24N4O20
_chemical_formula_sum              "Ba2 H28 C24 N4 O20"
_cell_length_a       8.44459
_cell_length_b       10.5075
_cell_length_c       10.6995
_cell_angle_alpha    79.6251
_cell_angle_beta     67.7058
_cell_angle_gamma    86.47

_space_group_name_H-M_alt    "P 1"
_space_group_IT_number       1

loop_
  _space_group_symop_operation_xyz
  'x, y, z'

loop_
  _atom_site_type_symbol
  _atom_site_label
  _atom_site_symmetry_multiplicity
  _atom_site_fract_x
  _atom_site_fract_y
  _atom_site_fract_z
  _atom_site_occupancy
  Ba  Ba1       1.0  0.17446  0.43068  0.82894  1.0000
  Ba  Ba2       1.0  0.82553  0.56932  0.17106  1.0000
  H   H1        1.0  0.17675  0.97421  0.70855  1.0000
  H   H2        1.0  0.82325  0.02579  0.29145  1.0000
  H   H3        1.0  0.43032  0.32842  0.48035  1.0000
  H   H4        1.0  0.56968  0.67158  0.51965  1.0000
  H   H5        1.0  0.28752  0.23453  0.59618  1.0000
  H   H6        1.0  0.71248  0.76546  0.40382  1.0000
  H   H7        1.0  0.28002  0.59726  0.04431  1.0000
  H   H8        1.0  0.71997  0.40274  0.95569  1.0000
  H   H9        1.0  0.24193  0.45124  0.10848  1.0000
  H   H10       1.0  0.75807  0.54876  0.89152  1.0000
  H   H11       1.0  0.69813  0.13764  0.98195  1.0000
  H   H12       1.0  0.30187  0.86236  0.01805  1.0000
  H   H13       1.0  0.54668  0.11207  0.21805  1.0000
  H   H14       1.0  0.45332  0.88793  0.78195  1.0000
  H   H15       1.0  0.27784  0.10102  0.42320  1.0000
  H   H16       1.0  0.72217  0.89898  0.57680  1.0000
  H   H17       1.0  0.09532  0.90175  0.50331  1.0000
  H   H18       1.0  0.90468  0.09825  0.49669  1.0000
  H   H19       1.0  0.17543  0.72203  0.36900  1.0000
  H   H20       1.0  0.82457  0.27797  0.63100  1.0000
  H   H21       1.0  0.21580  0.61304  0.52873  1.0000
  H   H22       1.0  0.78420  0.38697  0.47127  1.0000
  H   H23       1.0  0.19560  0.46415  0.54643  1.0000
  H   H24       1.0  0.80439  0.53585  0.45357  1.0000
  H   H25       1.0  0.47163  0.62749  0.74929  1.0000
  H   H26       1.0  0.52837  0.37251  0.25071  1.0000
  H   H27       1.0  0.33932  0.72499  0.70658  1.0000
  H   H28       1.0  0.66068  0.27501  0.29342  1.0000
  C   C1        1.0  0.67630  0.93105  0.06086  1.0000
  C   C2        1.0  0.32370  0.06895  0.93914  1.0000
  C   C3        1.0  0.51402  0.92364  0.17773  1.0000
  C   C4        1.0  0.48598  0.07636  0.82227  1.0000
  C   C5        1.0  0.46405  0.02713  0.25109  1.0000
  C   C6        1.0  0.53596  0.97287  0.74891  1.0000
  C   C7        1.0  0.31408  0.02031  0.36693  1.0000
  C   C8        1.0  0.68592  0.97969  0.63307  1.0000
  C   C9        1.0  0.21220  0.90873  0.41185  1.0000
  C   C10       1.0  0.78780  0.09127  0.58815  1.0000
  C   C11       1.0  0.25953  0.80609  0.33884  1.0000
  C   C12       1.0  0.74047  0.19391  0.66116  1.0000
  C   C13       1.0  0.40898  0.81236  0.22095  1.0000
  C   C14       1.0  0.59102  0.18764  0.77906  1.0000
  C   C15       1.0  0.43999  0.70262  0.14000  1.0000
  C   C16       1.0  0.56001  0.29738  0.86000  1.0000
  C   C17       1.0  0.91513  0.87806  0.91018  1.0000
  C   C18       1.0  0.08487  0.12194  0.08982  1.0000
  C   C19       1.0  0.90583  0.01330  0.88582  1.0000
  C   C20       1.0  0.09417  0.98670  0.11418  1.0000
  C   C21       1.0  0.02382  0.11524  0.79046  1.0000
  C   C22       1.0  0.97618  0.88477  0.20954  1.0000
  C   C23       1.0  0.05353  0.79076  0.84339  1.0000
  C   C24       1.0  0.94647  0.20924  0.15661  1.0000
  N   N1        1.0  0.77263  0.82879  0.01957  1.0000
  N   N2        1.0  0.22737  0.17121  0.98043  1.0000
  N   N3        1.0  0.75436  0.04390  0.98314  1.0000
  N   N4        1.0  0.24565  0.95610  0.01686  1.0000
  O   O1        1.0  0.99498  0.23072  0.80119  1.0000
  O   O2        1.0  0.00503  0.76928  0.19881  1.0000
  O   O3        1.0  0.16280  0.07889  0.69364  1.0000
  O   O4        1.0  0.83720  0.92111  0.30636  1.0000
  O   O5        1.0  0.18647  0.84151  0.74021  1.0000
  O   O6        1.0  0.81353  0.15849  0.25978  1.0000
  O   O7        1.0  0.03730  0.67179  0.89010  1.0000
  O   O8        1.0  0.96270  0.32822  0.10990  1.0000
  O   O9        1.0  0.40084  0.72496  0.03323  1.0000
  O   O10       1.0  0.59915  0.27504  0.96677  1.0000
  O   O11       1.0  0.49086  0.59588  0.18607  1.0000
  O   O12       1.0  0.50914  0.40412  0.81393  1.0000
  O   O13       1.0  0.33099  0.32389  0.56905  1.0000
  O   O14       1.0  0.66901  0.67611  0.43095  1.0000
  O   O15       1.0  0.20042  0.52412  0.05947  1.0000
  O   O16       1.0  0.79958  0.47588  0.94053  1.0000
  O   O17       1.0  0.13597  0.54218  0.58121  1.0000
  O   O18       1.0  0.86403  0.45782  0.41879  1.0000
  O   O19       1.0  0.41618  0.64915  0.68312  1.0000
  O   O20       1.0  0.58382  0.35084  0.31688  1.0000
