data_image0
_chemical_formula_structural       Zn4H24C24I16N24O4
_chemical_formula_sum              "Zn4 H24 C24 I16 N24 O4"
_cell_length_a       8.45088
_cell_length_b       10.9182
_cell_length_c       18.8903
_cell_angle_alpha    78.33
_cell_angle_beta     77.0761
_cell_angle_gamma    67.2096

_space_group_name_H-M_alt    "P 1"
_space_group_IT_number       1

loop_
  _space_group_symop_operation_xyz
  'x, y, z'

loop_
  _atom_site_type_symbol
  _atom_site_label
  _atom_site_symmetry_multiplicity
  _atom_site_fract_x
  _atom_site_fract_y
  _atom_site_fract_z
  _atom_site_occupancy
  Zn  Zn1       1.0  0.42563  0.64230  0.66844  1.0000
  Zn  Zn2       1.0  0.73637  0.85759  0.83158  1.0000
  Zn  Zn3       1.0  0.57437  0.35770  0.33156  1.0000
  Zn  Zn4       1.0  0.26363  0.14241  0.16842  1.0000
  H   H1        1.0  0.24822  0.09363  0.69567  1.0000
  H   H2        1.0  0.03767  0.40617  0.80439  1.0000
  H   H3        1.0  0.75178  0.90636  0.30433  1.0000
  H   H4        1.0  0.96232  0.59383  0.19561  1.0000
  H   H5        1.0  0.41169  0.94899  0.66158  1.0000
  H   H6        1.0  0.02243  0.55077  0.83849  1.0000
  H   H7        1.0  0.58831  0.05101  0.33842  1.0000
  H   H8        1.0  0.97756  0.44923  0.16151  1.0000
  H   H9        1.0  0.42731  0.82266  0.55512  1.0000
  H   H10       1.0  0.80515  0.67719  0.94494  1.0000
  H   H11       1.0  0.57269  0.17734  0.44488  1.0000
  H   H12       1.0  0.19485  0.32281  0.05506  1.0000
  H   H13       1.0  0.69799  0.56514  0.52515  1.0000
  H   H14       1.0  0.78896  0.93462  0.97469  1.0000
  H   H15       1.0  0.30200  0.43486  0.47484  1.0000
  H   H16       1.0  0.21106  0.06538  0.02531  1.0000
  H   H17       1.0  0.63313  0.71494  0.46231  1.0000
  H   H18       1.0  0.81097  0.78497  0.03763  1.0000
  H   H19       1.0  0.36686  0.28506  0.53768  1.0000
  H   H20       1.0  0.18904  0.21504  0.96237  1.0000
  H   H21       1.0  0.49287  0.62062  0.49368  1.0000
  H   H22       1.0  0.60764  0.87948  0.00631  1.0000
  H   H23       1.0  0.50713  0.37938  0.50632  1.0000
  H   H24       1.0  0.39237  0.12053  0.99369  1.0000
  C   C1        1.0  0.17089  0.92456  0.71259  1.0000
  C   C2        1.0  0.80821  0.57536  0.78740  1.0000
  C   C3        1.0  0.82911  0.07544  0.28741  1.0000
  C   C4        1.0  0.19179  0.42464  0.21260  1.0000
  C   C5        1.0  0.27179  0.00746  0.66813  1.0000
  C   C6        1.0  0.94751  0.49239  0.83191  1.0000
  C   C7        1.0  0.72821  0.99254  0.33187  1.0000
  C   C8        1.0  0.05248  0.50761  0.16809  1.0000
  C   C9        1.0  0.21503  0.04484  0.48373  1.0000
  C   C10       1.0  0.74339  0.45507  0.01625  1.0000
  C   C11       1.0  0.78497  0.95516  0.51627  1.0000
  C   C12       1.0  0.25661  0.54493  0.98375  1.0000
  C   C13       1.0  0.09129  0.17108  0.49991  1.0000
  C   C14       1.0  0.76196  0.32891  0.00001  1.0000
  C   C15       1.0  0.90871  0.82892  0.50009  1.0000
  C   C16       1.0  0.23804  0.67109  0.99999  1.0000
  C   C17       1.0  0.09761  0.17506  0.57287  1.0000
  C   C18       1.0  0.84539  0.32493  0.92708  1.0000
  C   C19       1.0  0.90240  0.82493  0.42713  1.0000
  C   C20       1.0  0.15461  0.67507  0.07292  1.0000
  C   C21       1.0  0.58710  0.65285  0.50915  1.0000
  C   C22       1.0  0.74960  0.84704  0.99079  1.0000
  C   C23       1.0  0.41290  0.34715  0.49085  1.0000
  C   C24       1.0  0.25041  0.15297  0.00920  1.0000
  I   I1        1.0  0.37603  0.42636  0.67851  1.0000
  I   I2        1.0  0.48083  0.07363  0.82151  1.0000
  I   I3        1.0  0.62398  0.57363  0.32149  1.0000
  I   I4        1.0  0.51917  0.92638  0.17849  1.0000
  I   I5        1.0  0.28218  0.96292  0.38626  1.0000
  I   I6        1.0  0.63129  0.53683  0.11378  1.0000
  I   I7        1.0  0.71782  0.03709  0.61374  1.0000
  I   I8        1.0  0.36871  0.46318  0.88622  1.0000
  I   I9        1.0  0.93512  0.31977  0.43123  1.0000
  I   I10       1.0  0.68580  0.18026  0.06862  1.0000
  I   I11       1.0  0.06488  0.68023  0.56877  1.0000
  I   I12       1.0  0.31419  0.81974  0.93138  1.0000
  I   I13       1.0  0.94794  0.31983  0.64092  1.0000
  I   I14       1.0  0.90872  0.18015  0.85903  1.0000
  I   I15       1.0  0.05206  0.68017  0.35909  1.0000
  I   I16       1.0  0.09128  0.81985  0.14097  1.0000
  N   N1        1.0  0.21594  0.79139  0.71214  1.0000
  N   N2        1.0  0.71955  0.70854  0.78786  1.0000
  N   N3        1.0  0.78406  0.20861  0.28786  1.0000
  N   N4        1.0  0.28044  0.29147  0.21214  1.0000
  N   N5        1.0  0.08707  0.75625  0.75446  1.0000
  N   N6        1.0  0.59785  0.74371  0.74552  1.0000
  N   N7        1.0  0.91293  0.24374  0.24554  1.0000
  N   N8        1.0  0.40214  0.25629  0.25448  1.0000
  N   N9        1.0  0.96947  0.86553  0.77913  1.0000
  N   N10       1.0  0.61430  0.63444  0.72083  1.0000
  N   N11       1.0  0.03053  0.13446  0.22087  1.0000
  N   N12       1.0  0.38570  0.36556  0.27917  1.0000
  N   N13       1.0  0.01646  0.97273  0.75467  1.0000
  N   N14       1.0  0.74409  0.52722  0.74530  1.0000
  N   N15       1.0  0.98355  0.02726  0.24533  1.0000
  N   N16       1.0  0.25591  0.47278  0.25470  1.0000
  N   N17       1.0  0.22227  0.05753  0.59538  1.0000
  N   N18       1.0  0.87520  0.44236  0.90464  1.0000
  N   N19       1.0  0.77773  0.94246  0.40462  1.0000
  N   N20       1.0  0.12479  0.55764  0.09536  1.0000
  N   N21       1.0  0.29360  0.97668  0.54149  1.0000
  N   N22       1.0  0.81173  0.52319  0.95855  1.0000
  N   N23       1.0  0.70641  0.02332  0.45851  1.0000
  N   N24       1.0  0.18827  0.47681  0.04145  1.0000
  O   O1        1.0  0.50999  0.72842  0.57053  1.0000
  O   O2        1.0  0.80915  0.77135  0.92947  1.0000
  O   O3        1.0  0.49001  0.27158  0.42947  1.0000
  O   O4        1.0  0.19085  0.22865  0.07053  1.0000
