data_image0
_chemical_formula_structural       Mn2H40C36N4Cl2O8
_chemical_formula_sum              "Mn2 H40 C36 N4 Cl2 O8"
_cell_length_a       9.5846
_cell_length_b       9.75622
_cell_length_c       9.76503
_cell_angle_alpha    82.2801
_cell_angle_beta     77.6228
_cell_angle_gamma    77.8383

_space_group_name_H-M_alt    "P 1"
_space_group_IT_number       1

loop_
  _space_group_symop_operation_xyz
  'x, y, z'

loop_
  _atom_site_type_symbol
  _atom_site_label
  _atom_site_symmetry_multiplicity
  _atom_site_fract_x
  _atom_site_fract_y
  _atom_site_fract_z
  _atom_site_occupancy
  Mn  Mn1       1.0  0.99988  0.00005  0.99995  1.0000
  Mn  Mn2       1.0  0.49969  0.99991  0.00009  1.0000
  H   H1        1.0  0.08489  0.37342  0.83246  1.0000
  H   H2        1.0  0.41540  0.16493  0.62694  1.0000
  H   H3        1.0  0.91512  0.62658  0.16754  1.0000
  H   H4        1.0  0.58468  0.83507  0.37305  1.0000
  H   H5        1.0  0.10421  0.40533  0.58460  1.0000
  H   H6        1.0  0.39415  0.41556  0.59479  1.0000
  H   H7        1.0  0.89579  0.59466  0.41540  1.0000
  H   H8        1.0  0.60585  0.58444  0.40522  1.0000
  H   H9        1.0  0.17069  0.30191  0.35344  1.0000
  H   H10       1.0  0.32978  0.64628  0.69828  1.0000
  H   H11       1.0  0.82931  0.69809  0.64656  1.0000
  H   H12       1.0  0.67022  0.35371  0.30171  1.0000
  H   H13       1.0  0.20528  0.04449  0.34465  1.0000
  H   H14       1.0  0.29653  0.65554  0.95545  1.0000
  H   H15       1.0  0.79472  0.95551  0.65535  1.0000
  H   H16       1.0  0.70347  0.34446  0.04455  1.0000
  H   H17       1.0  0.13511  0.82462  0.38552  1.0000
  H   H18       1.0  0.36601  0.61452  0.17467  1.0000
  H   H19       1.0  0.86489  0.17537  0.61449  1.0000
  H   H20       1.0  0.63399  0.38549  0.82533  1.0000
  H   H21       1.0  0.22981  0.67783  0.48197  1.0000
  H   H22       1.0  0.27074  0.51839  0.32195  1.0000
  H   H23       1.0  0.77019  0.32217  0.51803  1.0000
  H   H24       1.0  0.72926  0.48162  0.67805  1.0000
  H   H25       1.0  0.32224  0.81501  0.38934  1.0000
  H   H26       1.0  0.17861  0.61100  0.18524  1.0000
  H   H27       1.0  0.67776  0.18499  0.61066  1.0000
  H   H28       1.0  0.82139  0.38900  0.81476  1.0000
  H   H29       1.0  0.12488  0.21657  0.13827  1.0000
  H   H30       1.0  0.37521  0.86173  0.78344  1.0000
  H   H31       1.0  0.87513  0.78343  0.86173  1.0000
  H   H32       1.0  0.62478  0.13823  0.21653  1.0000
  H   H33       1.0  0.93319  0.26842  0.16213  1.0000
  H   H34       1.0  0.56687  0.83706  0.73370  1.0000
  H   H35       1.0  0.06681  0.73158  0.83786  1.0000
  H   H36       1.0  0.43312  0.16296  0.26631  1.0000
  H   H37       1.0  0.04867  0.38156  0.05438  1.0000
  H   H38       1.0  0.45433  0.94565  0.61906  1.0000
  H   H39       1.0  0.95133  0.61844  0.94563  1.0000
  H   H40       1.0  0.54567  0.05435  0.38093  1.0000
  C   C1        1.0  0.07038  0.26370  0.83942  1.0000
  C   C2        1.0  0.43010  0.15951  0.73624  1.0000
  C   C3        1.0  0.92964  0.73630  0.16058  1.0000
  C   C4        1.0  0.56987  0.84048  0.26378  1.0000
  C   C5        1.0  0.09595  0.20407  0.70757  1.0000
  C   C6        1.0  0.40357  0.29198  0.79544  1.0000
  C   C7        1.0  0.90405  0.79593  0.29244  1.0000
  C   C8        1.0  0.59640  0.70801  0.20457  1.0000
  C   C9        1.0  0.11736  0.29204  0.57978  1.0000
  C   C10       1.0  0.38153  0.41989  0.70810  1.0000
  C   C11       1.0  0.88263  0.70796  0.42022  1.0000
  C   C12       1.0  0.61847  0.58010  0.29191  1.0000
  C   C13       1.0  0.15474  0.23479  0.45190  1.0000
  C   C14       1.0  0.34486  0.54787  0.76551  1.0000
  C   C15       1.0  0.84526  0.76521  0.54810  1.0000
  C   C16       1.0  0.65515  0.45212  0.23449  1.0000
  C   C17       1.0  0.17544  0.08794  0.44652  1.0000
  C   C18       1.0  0.32472  0.55365  0.91221  1.0000
  C   C19       1.0  0.82456  0.91206  0.55349  1.0000
  C   C20       1.0  0.67529  0.44635  0.08779  1.0000
  C   C21       1.0  0.15696  0.99934  0.57033  1.0000
  C   C22       1.0  0.34279  0.42973  0.00054  1.0000
  C   C23       1.0  0.84304  0.00066  0.42968  1.0000
  C   C24       1.0  0.65722  0.57027  0.99946  1.0000
  C   C25       1.0  0.11273  0.05646  0.70361  1.0000
  C   C26       1.0  0.38736  0.29638  0.94316  1.0000
  C   C27       1.0  0.88728  0.94353  0.29639  1.0000
  C   C28       1.0  0.61263  0.70362  0.05685  1.0000
  C   C29       1.0  0.21852  0.79107  0.45075  1.0000
  C   C30       1.0  0.28220  0.54936  0.20869  1.0000
  C   C31       1.0  0.78149  0.20893  0.54924  1.0000
  C   C32       1.0  0.71780  0.45064  0.79131  1.0000
  C   C33       1.0  0.03500  0.27209  0.08657  1.0000
  C   C34       1.0  0.46598  0.91322  0.72892  1.0000
  C   C35       1.0  0.96500  0.72791  0.91343  1.0000
  C   C36       1.0  0.53399  0.08677  0.27107  1.0000
  N   N1        1.0  0.03840  0.19949  0.96439  1.0000
  N   N2        1.0  0.46272  0.03517  0.80257  1.0000
  N   N3        1.0  0.96162  0.80051  0.03561  1.0000
  N   N4        1.0  0.53713  0.96481  0.19748  1.0000
  Cl  Cl1       1.0  0.74456  0.08447  0.91256  1.0000
  Cl  Cl2       1.0  0.25599  0.91567  0.08730  1.0000
  O   O1        1.0  0.09474  0.96747  0.81638  1.0000
  O   O2        1.0  0.40630  0.18337  0.03182  1.0000
  O   O3        1.0  0.90531  0.03252  0.18363  1.0000
  O   O4        1.0  0.59365  0.81665  0.96820  1.0000
  O   O5        1.0  0.17742  0.85635  0.57967  1.0000
  O   O6        1.0  0.32206  0.42048  0.14359  1.0000
  O   O7        1.0  0.82258  0.14365  0.42033  1.0000
  O   O8        1.0  0.67795  0.57953  0.85641  1.0000
