data_image0
_chemical_formula_structural       Er4Cr4H16C24N4O24
_chemical_formula_sum              "Er4 Cr4 H16 C24 N4 O24"
_cell_length_a       6.59274
_cell_length_b       6.98395
_cell_length_c       18.9819
_cell_angle_alpha    89.9999
_cell_angle_beta     89.9999
_cell_angle_gamma    89.9999

_space_group_name_H-M_alt    "P 1"
_space_group_IT_number       1

loop_
  _space_group_symop_operation_xyz
  'x, y, z'

loop_
  _atom_site_type_symbol
  _atom_site_label
  _atom_site_symmetry_multiplicity
  _atom_site_fract_x
  _atom_site_fract_y
  _atom_site_fract_z
  _atom_site_occupancy
  Er  Er1       1.0  0.38380  0.85789  0.22415  1.0000
  Er  Er2       1.0  0.11621  0.14211  0.72415  1.0000
  Er  Er3       1.0  0.61622  0.35789  0.27585  1.0000
  Er  Er4       1.0  0.88378  0.64211  0.77585  1.0000
  Cr  Cr1       1.0  0.83062  0.87789  0.27968  1.0000
  Cr  Cr2       1.0  0.66938  0.12212  0.77969  1.0000
  Cr  Cr3       1.0  0.16939  0.37788  0.22031  1.0000
  Cr  Cr4       1.0  0.33061  0.62213  0.72032  1.0000
  H   H1        1.0  0.40811  0.16609  0.95437  1.0000
  H   H2        1.0  0.09190  0.83390  0.45437  1.0000
  H   H3        1.0  0.59189  0.66609  0.54563  1.0000
  H   H4        1.0  0.90810  0.33390  0.04562  1.0000
  H   H5        1.0  0.48449  0.13759  0.08381  1.0000
  H   H6        1.0  0.01551  0.86241  0.58381  1.0000
  H   H7        1.0  0.51551  0.63759  0.41619  1.0000
  H   H8        1.0  0.98449  0.36241  0.91619  1.0000
  H   H9        1.0  0.88632  0.80717  0.98932  1.0000
  H   H10       1.0  0.61368  0.19282  0.48932  1.0000
  H   H11       1.0  0.11368  0.30717  0.51068  1.0000
  H   H12       1.0  0.38632  0.69282  0.01068  1.0000
  H   H13       1.0  0.97912  0.79742  0.11729  1.0000
  H   H14       1.0  0.52088  0.20258  0.61729  1.0000
  H   H15       1.0  0.02088  0.29742  0.38271  1.0000
  H   H16       1.0  0.47912  0.70258  0.88271  1.0000
  C   C1        1.0  0.10578  0.96437  0.88417  1.0000
  C   C2        1.0  0.39423  0.03563  0.38417  1.0000
  C   C3        1.0  0.89422  0.46436  0.61583  1.0000
  C   C4        1.0  0.60578  0.53563  0.11583  1.0000
  C   C5        1.0  0.14408  0.98283  0.96185  1.0000
  C   C6        1.0  0.35592  0.01716  0.46185  1.0000
  C   C7        1.0  0.85592  0.48284  0.53815  1.0000
  C   C8        1.0  0.64408  0.51716  0.03815  1.0000
  C   C9        1.0  0.30890  0.08478  0.98916  1.0000
  C   C10       1.0  0.19111  0.91522  0.48916  1.0000
  C   C11       1.0  0.69111  0.58478  0.51084  1.0000
  C   C12       1.0  0.80889  0.41522  0.01084  1.0000
  C   C13       1.0  0.35204  0.06751  0.06082  1.0000
  C   C14       1.0  0.14796  0.93248  0.56082  1.0000
  C   C15       1.0  0.64796  0.56752  0.43918  1.0000
  C   C16       1.0  0.85203  0.43248  0.93918  1.0000
  C   C17       1.0  0.01897  0.88307  0.00858  1.0000
  C   C18       1.0  0.48103  0.11693  0.50858  1.0000
  C   C19       1.0  0.98103  0.38307  0.49141  1.0000
  C   C20       1.0  0.51897  0.61692  0.99141  1.0000
  C   C21       1.0  0.07035  0.87702  0.07951  1.0000
  C   C22       1.0  0.42965  0.12298  0.57951  1.0000
  C   C23       1.0  0.92966  0.37702  0.42049  1.0000
  C   C24       1.0  0.57034  0.62298  0.92049  1.0000
  N   N1        1.0  0.23883  0.96086  0.10509  1.0000
  N   N2        1.0  0.26118  0.03914  0.60509  1.0000
  N   N3        1.0  0.76118  0.46086  0.39490  1.0000
  N   N4        1.0  0.73882  0.53914  0.89491  1.0000
  O   O1        1.0  0.03821  0.80224  0.86441  1.0000
  O   O2        1.0  0.46179  0.19776  0.36441  1.0000
  O   O3        1.0  0.96178  0.30223  0.63559  1.0000
  O   O4        1.0  0.53823  0.69777  0.13559  1.0000
  O   O5        1.0  0.14284  0.10559  0.84437  1.0000
  O   O6        1.0  0.35716  0.89440  0.34437  1.0000
  O   O7        1.0  0.85715  0.60560  0.65563  1.0000
  O   O8        1.0  0.64285  0.39441  0.15563  1.0000
  O   O9        1.0  0.68597  0.68247  0.27530  1.0000
  O   O10       1.0  0.81403  0.31754  0.77530  1.0000
  O   O11       1.0  0.31404  0.18247  0.22470  1.0000
  O   O12       1.0  0.18595  0.81754  0.72470  1.0000
  O   O13       1.0  0.67829  0.04385  0.24042  1.0000
  O   O14       1.0  0.82171  0.95616  0.74043  1.0000
  O   O15       1.0  0.32172  0.54384  0.25957  1.0000
  O   O16       1.0  0.17828  0.45616  0.75958  1.0000
  O   O17       1.0  0.04429  0.84675  0.23599  1.0000
  O   O18       1.0  0.45571  0.15326  0.73599  1.0000
  O   O19       1.0  0.95572  0.34675  0.26401  1.0000
  O   O20       1.0  0.54428  0.65326  0.76401  1.0000
  O   O21       1.0  0.87446  0.93720  0.35974  1.0000
  O   O22       1.0  0.62554  0.06281  0.85974  1.0000
  O   O23       1.0  0.12555  0.43720  0.14026  1.0000
  O   O24       1.0  0.37445  0.56281  0.64026  1.0000
