data_image0
_chemical_formula_structural       K4H32C16S4N4O12
_chemical_formula_sum              "K4 H32 C16 S4 N4 O12"
_cell_length_a       6.1067
_cell_length_b       6.73238
_cell_length_c       19.9852
_cell_angle_alpha    90.0001
_cell_angle_beta     90.0005
_cell_angle_gamma    107.957

_space_group_name_H-M_alt    "P 1"
_space_group_IT_number       1

loop_
  _space_group_symop_operation_xyz
  'x, y, z'

loop_
  _atom_site_type_symbol
  _atom_site_label
  _atom_site_symmetry_multiplicity
  _atom_site_fract_x
  _atom_site_fract_y
  _atom_site_fract_z
  _atom_site_occupancy
  K   K1        1.0  0.62482  0.07972  0.26926  1.0000
  K   K2        1.0  0.87519  0.42028  0.76926  1.0000
  K   K3        1.0  0.37519  0.92028  0.73074  1.0000
  K   K4        1.0  0.12482  0.57972  0.23074  1.0000
  H   H1        1.0  0.06341  0.41166  0.38952  1.0000
  H   H2        1.0  0.43659  0.08835  0.88952  1.0000
  H   H3        1.0  0.93659  0.58835  0.61048  1.0000
  H   H4        1.0  0.56340  0.91165  0.11048  1.0000
  H   H5        1.0  0.29992  0.32759  0.36122  1.0000
  H   H6        1.0  0.20007  0.17242  0.86122  1.0000
  H   H7        1.0  0.70008  0.67242  0.63878  1.0000
  H   H8        1.0  0.79991  0.82758  0.13877  1.0000
  H   H9        1.0  0.19782  0.27416  0.44453  1.0000
  H   H10       1.0  0.30218  0.22584  0.94453  1.0000
  H   H11       1.0  0.80218  0.72584  0.55548  1.0000
  H   H12       1.0  0.69781  0.77416  0.05547  1.0000
  H   H13       1.0  0.17182  0.74345  0.46869  1.0000
  H   H14       1.0  0.32818  0.75655  0.96869  1.0000
  H   H15       1.0  0.82818  0.25655  0.53131  1.0000
  H   H16       1.0  0.67182  0.24345  0.03131  1.0000
  H   H17       1.0  0.44878  0.80069  0.50655  1.0000
  H   H18       1.0  0.05123  0.69932  0.00655  1.0000
  H   H19       1.0  0.55123  0.19931  0.49345  1.0000
  H   H20       1.0  0.94878  0.30069  0.99345  1.0000
  H   H21       1.0  0.23511  0.55489  0.52226  1.0000
  H   H22       1.0  0.26489  0.94511  0.02226  1.0000
  H   H23       1.0  0.76490  0.44511  0.47774  1.0000
  H   H24       1.0  0.73511  0.05489  0.97774  1.0000
  H   H25       1.0  0.13658  0.00816  0.28429  1.0000
  H   H26       1.0  0.36342  0.49184  0.78429  1.0000
  H   H27       1.0  0.86343  0.99184  0.71571  1.0000
  H   H28       1.0  0.63658  0.50816  0.21571  1.0000
  H   H29       1.0  0.07592  0.90737  0.35529  1.0000
  H   H30       1.0  0.42409  0.59263  0.85529  1.0000
  H   H31       1.0  0.92409  0.09263  0.64471  1.0000
  H   H32       1.0  0.57592  0.40737  0.14471  1.0000
  C   C1        1.0  0.58710  0.68020  0.39724  1.0000
  C   C2        1.0  0.91290  0.81980  0.89724  1.0000
  C   C3        1.0  0.41290  0.31981  0.60276  1.0000
  C   C4        1.0  0.08709  0.18020  0.10276  1.0000
  C   C5        1.0  0.64243  0.58400  0.33294  1.0000
  C   C6        1.0  0.85758  0.91600  0.83295  1.0000
  C   C7        1.0  0.35758  0.41601  0.66706  1.0000
  C   C8        1.0  0.14240  0.08401  0.16706  1.0000
  C   C9        1.0  0.30664  0.67658  0.48479  1.0000
  C   C10       1.0  0.19337  0.82342  0.98479  1.0000
  C   C11       1.0  0.69338  0.32342  0.51522  1.0000
  C   C12       1.0  0.80663  0.17658  0.01521  1.0000
  C   C13       1.0  0.22815  0.38905  0.40368  1.0000
  C   C14       1.0  0.27185  0.11095  0.90368  1.0000
  C   C15       1.0  0.77186  0.61095  0.59632  1.0000
  C   C16       1.0  0.72814  0.88904  0.09631  1.0000
  S   S1        1.0  0.78423  0.90141  0.42336  1.0000
  S   S2        1.0  0.71578  0.59859  0.92336  1.0000
  S   S3        1.0  0.21578  0.09860  0.57664  1.0000
  S   S4        1.0  0.28422  0.40140  0.07663  1.0000
  N   N1        1.0  0.38774  0.58601  0.42725  1.0000
  N   N2        1.0  0.11226  0.91399  0.92725  1.0000
  N   N3        1.0  0.61226  0.41399  0.57276  1.0000
  N   N4        1.0  0.88773  0.08600  0.07275  1.0000
  O   O1        1.0  0.75606  0.45717  0.33680  1.0000
  O   O2        1.0  0.74393  0.04281  0.83680  1.0000
  O   O3        1.0  0.24393  0.54281  0.66320  1.0000
  O   O4        1.0  0.25602  0.95717  0.16320  1.0000
  O   O5        1.0  0.57133  0.64861  0.27942  1.0000
  O   O6        1.0  0.92870  0.85139  0.77942  1.0000
  O   O7        1.0  0.42868  0.35139  0.72058  1.0000
  O   O8        1.0  0.07131  0.14862  0.22058  1.0000
  O   O9        1.0  0.18777  0.92284  0.31828  1.0000
  O   O10       1.0  0.31223  0.57715  0.81828  1.0000
  O   O11       1.0  0.81224  0.07716  0.68172  1.0000
  O   O12       1.0  0.68777  0.42284  0.18172  1.0000
