data_image0
_chemical_formula_structural       Zn4H12C32O16
_chemical_formula_sum              "Zn4 H12 C32 O16"
_cell_length_a       8.99887
_cell_length_b       9.59041
_cell_length_c       9.59041
_cell_angle_alpha    100.995
_cell_angle_beta     101.743
_cell_angle_gamma    101.743

_space_group_name_H-M_alt    "P 1"
_space_group_IT_number       1

loop_
  _space_group_symop_operation_xyz
  'x, y, z'

loop_
  _atom_site_type_symbol
  _atom_site_label
  _atom_site_symmetry_multiplicity
  _atom_site_fract_x
  _atom_site_fract_y
  _atom_site_fract_z
  _atom_site_occupancy
  Zn  Zn1       1.0  0.10522  0.89550  0.82009  1.0000
  Zn  Zn2       1.0  0.39478  0.17991  0.10450  1.0000
  Zn  Zn3       1.0  0.89478  0.10450  0.17991  1.0000
  Zn  Zn4       1.0  0.60522  0.82009  0.89550  1.0000
  H   H1        1.0  0.96600  0.37162  0.91100  1.0000
  H   H2        1.0  0.53400  0.08900  0.62838  1.0000
  H   H3        1.0  0.03400  0.62839  0.08900  1.0000
  H   H4        1.0  0.46600  0.91100  0.37162  1.0000
  H   H5        1.0  0.96528  0.54151  0.74356  1.0000
  H   H6        1.0  0.53471  0.25644  0.45849  1.0000
  H   H7        1.0  0.03472  0.45849  0.25644  1.0000
  H   H8        1.0  0.46528  0.74356  0.54151  1.0000
  H   H9        1.0  0.81102  0.87656  0.49408  1.0000
  H   H10       1.0  0.68898  0.50592  0.12344  1.0000
  H   H11       1.0  0.18898  0.12344  0.50592  1.0000
  H   H12       1.0  0.31102  0.49408  0.87656  1.0000
  C   C1        1.0  0.75000  0.11929  0.88071  1.0000
  C   C2        1.0  0.25000  0.88071  0.11929  1.0000
  C   C3        1.0  0.75000  0.22000  0.78000  1.0000
  C   C4        1.0  0.25000  0.78000  0.22000  1.0000
  C   C5        1.0  0.87099  0.34834  0.81240  1.0000
  C   C6        1.0  0.62900  0.18760  0.65166  1.0000
  C   C7        1.0  0.12901  0.65166  0.18760  1.0000
  C   C8        1.0  0.37099  0.81240  0.34834  1.0000
  C   C9        1.0  0.86998  0.44309  0.71921  1.0000
  C   C10       1.0  0.63002  0.28079  0.55691  1.0000
  C   C11       1.0  0.13002  0.55691  0.28079  1.0000
  C   C12       1.0  0.36998  0.71922  0.44309  1.0000
  C   C13       1.0  0.75000  0.41046  0.58954  1.0000
  C   C14       1.0  0.25000  0.58954  0.41046  1.0000
  C   C15       1.0  0.75000  0.51054  0.48946  1.0000
  C   C16       1.0  0.25000  0.48946  0.51054  1.0000
  C   C17       1.0  0.77472  0.66320  0.54301  1.0000
  C   C18       1.0  0.72528  0.45699  0.33680  1.0000
  C   C19       1.0  0.22528  0.33680  0.45699  1.0000
  C   C20       1.0  0.27472  0.54301  0.66320  1.0000
  C   C21       1.0  0.76729  0.73191  0.69434  1.0000
  C   C22       1.0  0.73271  0.30566  0.26809  1.0000
  C   C23       1.0  0.23271  0.26809  0.30566  1.0000
  C   C24       1.0  0.26729  0.69434  0.73191  1.0000
  C   C25       1.0  0.78444  0.75828  0.44969  1.0000
  C   C26       1.0  0.71556  0.55031  0.24172  1.0000
  C   C27       1.0  0.21556  0.24172  0.55031  1.0000
  C   C28       1.0  0.28444  0.44969  0.75828  1.0000
  C   C29       1.0  0.75000  0.70177  0.29823  1.0000
  C   C30       1.0  0.25000  0.29823  0.70177  1.0000
  C   C31       1.0  0.75000  0.80224  0.19776  1.0000
  C   C32       1.0  0.25000  0.19776  0.80224  1.0000
  O   O1        1.0  0.87184  0.14594  0.98646  1.0000
  O   O2        1.0  0.62816  0.01354  0.85406  1.0000
  O   O3        1.0  0.12816  0.85406  0.01354  1.0000
  O   O4        1.0  0.37184  0.98646  0.14594  1.0000
  O   O5        1.0  0.87162  0.84420  0.77561  1.0000
  O   O6        1.0  0.62838  0.22439  0.15580  1.0000
  O   O7        1.0  0.12838  0.15580  0.22439  1.0000
  O   O8        1.0  0.37162  0.77561  0.84420  1.0000
  O   O9        1.0  0.64075  0.68227  0.72913  1.0000
  O   O10       1.0  0.85925  0.27087  0.31773  1.0000
  O   O11       1.0  0.35925  0.31773  0.27087  1.0000
  O   O12       1.0  0.14075  0.72913  0.68227  1.0000
  O   O13       1.0  0.82863  0.93465  0.25337  1.0000
  O   O14       1.0  0.67137  0.74663  0.06535  1.0000
  O   O15       1.0  0.17137  0.06535  0.74663  1.0000
  O   O16       1.0  0.32863  0.25337  0.93465  1.0000
