data_image0
_chemical_formula_structural       H28Pb2C48O16
_chemical_formula_sum              "H28 Pb2 C48 O16"
_cell_length_a       7.1192
_cell_length_b       12.3952
_cell_length_c       12.3952
_cell_angle_alpha    92.2315
_cell_angle_beta     106.925
_cell_angle_gamma    106.925

_space_group_name_H-M_alt    "P 1"
_space_group_IT_number       1

loop_
  _space_group_symop_operation_xyz
  'x, y, z'

loop_
  _atom_site_type_symbol
  _atom_site_label
  _atom_site_symmetry_multiplicity
  _atom_site_fract_x
  _atom_site_fract_y
  _atom_site_fract_z
  _atom_site_occupancy
  H   H1        1.0  0.65696  0.76520  0.38578  1.0000
  H   H2        1.0  0.84303  0.61422  0.23479  1.0000
  H   H3        1.0  0.34301  0.23479  0.61422  1.0000
  H   H4        1.0  0.15697  0.38578  0.76520  1.0000
  H   H5        1.0  0.64014  0.95744  0.34415  1.0000
  H   H6        1.0  0.85983  0.65585  0.04255  1.0000
  H   H7        1.0  0.35982  0.04255  0.65585  1.0000
  H   H8        1.0  0.14014  0.34415  0.95744  1.0000
  H   H9        1.0  0.97499  0.80969  0.79081  1.0000
  H   H10       1.0  0.52500  0.20919  0.19030  1.0000
  H   H11       1.0  0.02500  0.19030  0.20919  1.0000
  H   H12       1.0  0.47500  0.79082  0.80970  1.0000
  H   H13       1.0  0.07734  0.96208  0.94761  1.0000
  H   H14       1.0  0.42266  0.05239  0.03792  1.0000
  H   H15       1.0  0.92266  0.03791  0.05239  1.0000
  H   H16       1.0  0.57733  0.94761  0.96208  1.0000
  H   H17       1.0  0.02244  0.14934  0.90932  1.0000
  H   H18       1.0  0.47757  0.09068  0.85067  1.0000
  H   H19       1.0  0.97757  0.85066  0.09069  1.0000
  H   H20       1.0  0.52241  0.90932  0.14933  1.0000
  H   H21       1.0  0.88053  0.18304  0.71173  1.0000
  H   H22       1.0  0.61947  0.28827  0.81696  1.0000
  H   H23       1.0  0.11946  0.81696  0.28828  1.0000
  H   H24       1.0  0.38052  0.71172  0.18304  1.0000
  H   H25       1.0  0.61648  0.21699  0.36467  1.0000
  H   H26       1.0  0.88352  0.63532  0.78301  1.0000
  H   H27       1.0  0.38352  0.78302  0.63533  1.0000
  H   H28       1.0  0.11648  0.36468  0.21699  1.0000
  Pb  Pb1       1.0  0.75000  0.43823  0.56176  1.0000
  Pb  Pb2       1.0  0.25001  0.56176  0.43824  1.0000
  C   C1        1.0  0.78856  0.69430  0.58122  1.0000
  C   C2        1.0  0.71145  0.41878  0.30570  1.0000
  C   C3        1.0  0.21145  0.30570  0.41878  1.0000
  C   C4        1.0  0.28856  0.58122  0.69430  1.0000
  C   C5        1.0  0.78942  0.81419  0.56600  1.0000
  C   C6        1.0  0.71059  0.43401  0.18581  1.0000
  C   C7        1.0  0.21058  0.18581  0.43400  1.0000
  C   C8        1.0  0.28942  0.56600  0.81418  1.0000
  C   C9        1.0  0.70917  0.83459  0.45523  1.0000
  C   C10       1.0  0.79083  0.54477  0.16542  1.0000
  C   C11       1.0  0.29082  0.16541  0.54477  1.0000
  C   C12       1.0  0.20917  0.45524  0.83458  1.0000
  C   C13       1.0  0.69906  0.94279  0.43178  1.0000
  C   C14       1.0  0.80093  0.56822  0.05721  1.0000
  C   C15       1.0  0.30091  0.05721  0.56822  1.0000
  C   C16       1.0  0.19907  0.43178  0.94279  1.0000
  C   C17       1.0  0.76267  0.03251  0.51865  1.0000
  C   C18       1.0  0.73733  0.48135  0.96749  1.0000
  C   C19       1.0  0.23732  0.96749  0.48136  1.0000
  C   C20       1.0  0.26267  0.51865  0.03251  1.0000
  C   C21       1.0  0.84324  0.01535  0.63484  1.0000
  C   C22       1.0  0.65676  0.36517  0.98465  1.0000
  C   C23       1.0  0.15675  0.98465  0.36516  1.0000
  C   C24       1.0  0.34324  0.63484  0.01535  1.0000
  C   C25       1.0  0.86363  0.90519  0.65815  1.0000
  C   C26       1.0  0.63638  0.34185  0.09482  1.0000
  C   C27       1.0  0.13637  0.09481  0.34185  1.0000
  C   C28       1.0  0.36363  0.65815  0.90518  1.0000
  C   C29       1.0  0.95090  0.89024  0.77288  1.0000
  C   C30       1.0  0.54910  0.22712  0.10976  1.0000
  C   C31       1.0  0.04910  0.10976  0.22712  1.0000
  C   C32       1.0  0.45090  0.77288  0.89024  1.0000
  C   C33       1.0  0.00875  0.97640  0.86091  1.0000
  C   C34       1.0  0.49126  0.13909  0.02360  1.0000
  C   C35       1.0  0.99125  0.02360  0.13909  1.0000
  C   C36       1.0  0.50874  0.86091  0.97639  1.0000
  C   C37       1.0  0.97946  0.08199  0.83893  1.0000
  C   C38       1.0  0.52055  0.16106  0.91802  1.0000
  C   C39       1.0  0.02055  0.91801  0.16107  1.0000
  C   C40       1.0  0.47944  0.83894  0.08198  1.0000
  C   C41       1.0  0.89952  0.10103  0.72866  1.0000
  C   C42       1.0  0.60048  0.27133  0.89897  1.0000
  C   C43       1.0  0.10047  0.89897  0.27134  1.0000
  C   C44       1.0  0.39952  0.72866  0.10103  1.0000
  C   C45       1.0  0.74492  0.14455  0.48642  1.0000
  C   C46       1.0  0.75511  0.51359  0.85547  1.0000
  C   C47       1.0  0.25509  0.85546  0.51359  1.0000
  C   C48       1.0  0.24492  0.48642  0.14454  1.0000
  O   O1        1.0  0.65170  0.61520  0.50422  1.0000
  O   O2        1.0  0.84831  0.49578  0.38480  1.0000
  O   O3        1.0  0.34831  0.38480  0.49578  1.0000
  O   O4        1.0  0.15170  0.50422  0.61519  1.0000
  O   O5        1.0  0.92062  0.67186  0.66359  1.0000
  O   O6        1.0  0.57940  0.33641  0.32814  1.0000
  O   O7        1.0  0.07939  0.32814  0.33641  1.0000
  O   O8        1.0  0.42062  0.66359  0.67186  1.0000
  O   O9        1.0  0.83516  0.23627  0.55042  1.0000
  O   O10       1.0  0.66489  0.44955  0.76372  1.0000
  O   O11       1.0  0.16486  0.76373  0.44957  1.0000
  O   O12       1.0  0.33516  0.55043  0.23628  1.0000
  O   O13       1.0  0.62215  0.13827  0.38052  1.0000
  O   O14       1.0  0.87783  0.61948  0.86173  1.0000
  O   O15       1.0  0.37784  0.86173  0.61949  1.0000
  O   O16       1.0  0.12216  0.38052  0.13827  1.0000
