data_image0
_chemical_formula_structural       Cu3H22C30S2N20O12
_chemical_formula_sum              "Cu3 H22 C30 S2 N20 O12"
_cell_length_a       8.03123
_cell_length_b       11.8187
_cell_length_c       14.0138
_cell_angle_alpha    104.066
_cell_angle_beta     104.535
_cell_angle_gamma    107.685

_space_group_name_H-M_alt    "P 1"
_space_group_IT_number       1

loop_
  _space_group_symop_operation_xyz
  'x, y, z'

loop_
  _atom_site_type_symbol
  _atom_site_label
  _atom_site_symmetry_multiplicity
  _atom_site_fract_x
  _atom_site_fract_y
  _atom_site_fract_z
  _atom_site_occupancy
  Cu  Cu1       1.0  0.99997  0.50024  0.99992  1.0000
  Cu  Cu2       1.0  0.49632  0.68115  0.50488  1.0000
  Cu  Cu3       1.0  0.50387  0.31872  0.49500  1.0000
  H   H1        1.0  0.95707  0.23307  0.00541  1.0000
  H   H2        1.0  0.04296  0.76684  0.99457  1.0000
  H   H3        1.0  0.09849  0.32100  0.11943  1.0000
  H   H4        1.0  0.90143  0.67894  0.88053  1.0000
  H   H5        1.0  0.30022  0.54418  0.88689  1.0000
  H   H6        1.0  0.69980  0.45585  0.11308  1.0000
  H   H7        1.0  0.65210  0.66668  0.95559  1.0000
  H   H8        1.0  0.34790  0.33329  0.04441  1.0000
  H   H9        1.0  0.65371  0.77589  0.26058  1.0000
  H   H10       1.0  0.34630  0.22382  0.73945  1.0000
  H   H11       1.0  0.27903  0.72208  0.66152  1.0000
  H   H12       1.0  0.72096  0.27793  0.33848  1.0000
  H   H13       1.0  0.95655  0.70958  0.65850  1.0000
  H   H14       1.0  0.04345  0.29046  0.34151  1.0000
  H   H15       1.0  0.77825  0.61741  0.33427  1.0000
  H   H16       1.0  0.22170  0.38257  0.66572  1.0000
  H   H17       1.0  0.85605  0.09660  0.48993  1.0000
  H   H18       1.0  0.14398  0.90338  0.51007  1.0000
  H   H19       1.0  0.06200  0.07740  0.78636  1.0000
  H   H20       1.0  0.93804  0.92267  0.21367  1.0000
  H   H21       1.0  0.80759  0.85498  0.72555  1.0000
  H   H22       1.0  0.19251  0.14506  0.27447  1.0000
  C   C1        1.0  0.37975  0.59759  0.97023  1.0000
  C   C2        1.0  0.62021  0.40254  0.02974  1.0000
  C   C3        1.0  0.57320  0.66555  0.00867  1.0000
  C   C4        1.0  0.42680  0.33441  0.99134  1.0000
  C   C5        1.0  0.57390  0.72567  0.17718  1.0000
  C   C6        1.0  0.42607  0.27425  0.82283  1.0000
  C   C7        1.0  0.37996  0.65946  0.14035  1.0000
  C   C8        1.0  0.61998  0.34058  0.85963  1.0000
  C   C9        1.0  0.25780  0.64897  0.20091  1.0000
  C   C10       1.0  0.74218  0.35078  0.79910  1.0000
  C   C11       1.0  0.11330  0.64081  0.31430  1.0000
  C   C12       1.0  0.88665  0.35934  0.68570  1.0000
  C   C13       1.0  0.07263  0.65694  0.41106  1.0000
  C   C14       1.0  0.92734  0.34322  0.58896  1.0000
  C   C15       1.0  0.16764  0.70290  0.58919  1.0000
  C   C16       1.0  0.83233  0.29708  0.41080  1.0000
  C   C17       1.0  0.98965  0.69475  0.58664  1.0000
  C   C18       1.0  0.01034  0.30525  0.41337  1.0000
  C   C19       1.0  0.89125  0.64462  0.40818  1.0000
  C   C20       1.0  0.10870  0.35541  0.59184  1.0000
  C   C21       1.0  0.54981  0.87232  0.40736  1.0000
  C   C22       1.0  0.45022  0.12782  0.59268  1.0000
  C   C23       1.0  0.70272  0.92781  0.51255  1.0000
  C   C24       1.0  0.29734  0.07224  0.48750  1.0000
  C   C25       1.0  0.84727  0.04561  0.54494  1.0000
  C   C26       1.0  0.15279  0.95442  0.45509  1.0000
  C   C27       1.0  0.95922  0.03209  0.70657  1.0000
  C   C28       1.0  0.04084  0.96795  0.29345  1.0000
  C   C29       1.0  0.81845  0.91180  0.67475  1.0000
  C   C30       1.0  0.18163  0.08823  0.32526  1.0000
  S   S1        1.0  0.62315  0.58056  0.68664  1.0000
  S   S2        1.0  0.37682  0.41940  0.31334  1.0000
  N   N1        1.0  0.66918  0.72868  0.11146  1.0000
  N   N2        1.0  0.33079  0.27129  0.88855  1.0000
  N   N3        1.0  0.28502  0.59502  0.03611  1.0000
  N   N4        1.0  0.71485  0.40543  0.96381  1.0000
  N   N5        1.0  0.07400  0.58492  0.15019  1.0000
  N   N6        1.0  0.92608  0.41433  0.84983  1.0000
  N   N7        1.0  0.98414  0.57882  0.21888  1.0000
  N   N8        1.0  0.01587  0.42087  0.78114  1.0000
  N   N9        1.0  0.28736  0.68757  0.30576  1.0000
  N   N10       1.0  0.71256  0.31265  0.69424  1.0000
  N   N11       1.0  0.20988  0.68595  0.50175  1.0000
  N   N12       1.0  0.79007  0.31411  0.49823  1.0000
  N   N13       1.0  0.85142  0.66560  0.49603  1.0000
  N   N14       1.0  0.14853  0.33438  0.50399  1.0000
  N   N15       1.0  0.45273  0.74815  0.38895  1.0000
  N   N16       1.0  0.54715  0.25205  0.61111  1.0000
  N   N17       1.0  0.69254  0.86015  0.57710  1.0000
  N   N18       1.0  0.30752  0.13988  0.42292  1.0000
  N   N19       1.0  0.97680  0.09800  0.64155  1.0000
  N   N20       1.0  0.02324  0.90203  0.35846  1.0000
  O   O1        1.0  0.52122  0.93499  0.35011  1.0000
  O   O2        1.0  0.47891  0.06522  0.64998  1.0000
  O   O3        1.0  0.04869  0.31852  0.04535  1.0000
  O   O4        1.0  0.95133  0.68139  0.95461  1.0000
  O   O5        1.0  0.50766  0.64412  0.63494  1.0000
  O   O6        1.0  0.49239  0.35585  0.36502  1.0000
  O   O7        1.0  0.65917  0.49612  0.60199  1.0000
  O   O8        1.0  0.34075  0.50383  0.39798  1.0000
  O   O9        1.0  0.52326  0.51210  0.74272  1.0000
  O   O10       1.0  0.47673  0.48789  0.25729  1.0000
  O   O11       1.0  0.80786  0.68015  0.76018  1.0000
  O   O12       1.0  0.19213  0.31979  0.23984  1.0000
