data_image0
_chemical_formula_structural       Cd2H16C24Br4N4
_chemical_formula_sum              "Cd2 H16 C24 Br4 N4"
_cell_length_a       7.41416
_cell_length_b       9.74622
_cell_length_c       9.74618
_cell_angle_alpha    66.9853
_cell_angle_beta     75.8262
_cell_angle_gamma    75.8261

_space_group_name_H-M_alt    "P 1"
_space_group_IT_number       1

loop_
  _space_group_symop_operation_xyz
  'x, y, z'

loop_
  _atom_site_type_symbol
  _atom_site_label
  _atom_site_symmetry_multiplicity
  _atom_site_fract_x
  _atom_site_fract_y
  _atom_site_fract_z
  _atom_site_occupancy
  Cd  Cd1       1.0  0.25000  0.92736  0.07264  1.0000
  Cd  Cd2       1.0  0.75000  0.07264  0.92736  1.0000
  H   H1        1.0  0.59236  0.66778  0.98819  1.0000
  H   H2        1.0  0.90764  0.01181  0.33221  1.0000
  H   H3        1.0  0.40764  0.33221  0.01181  1.0000
  H   H4        1.0  0.09236  0.98819  0.66778  1.0000
  H   H5        1.0  0.72375  0.39020  0.10230  1.0000
  H   H6        1.0  0.77625  0.89771  0.60979  1.0000
  H   H7        1.0  0.27624  0.60979  0.89771  1.0000
  H   H8        1.0  0.22375  0.10229  0.39020  1.0000
  H   H9        1.0  0.59013  0.24622  0.36800  1.0000
  H   H10       1.0  0.90987  0.63200  0.75378  1.0000
  H   H11       1.0  0.40987  0.75378  0.63200  1.0000
  H   H12       1.0  0.09012  0.36800  0.24621  1.0000
  H   H13       1.0  0.12566  0.38928  0.74988  1.0000
  H   H14       1.0  0.37433  0.25013  0.61072  1.0000
  H   H15       1.0  0.87433  0.61072  0.25012  1.0000
  H   H16       1.0  0.62567  0.74987  0.38928  1.0000
  C   C1        1.0  0.53753  0.59977  0.10346  1.0000
  C   C2        1.0  0.96247  0.89654  0.40023  1.0000
  C   C3        1.0  0.46247  0.40023  0.89654  1.0000
  C   C4        1.0  0.03753  0.10346  0.59977  1.0000
  C   C5        1.0  0.61035  0.44555  0.16777  1.0000
  C   C6        1.0  0.88965  0.83223  0.55445  1.0000
  C   C7        1.0  0.38965  0.55445  0.83223  1.0000
  C   C8        1.0  0.11035  0.16777  0.44555  1.0000
  C   C9        1.0  0.53703  0.36617  0.31499  1.0000
  C   C10       1.0  0.96297  0.68502  0.63383  1.0000
  C   C11       1.0  0.46298  0.63383  0.68501  1.0000
  C   C12       1.0  0.03703  0.31499  0.36617  1.0000
  C   C13       1.0  0.39359  0.44150  0.39857  1.0000
  C   C14       1.0  0.10641  0.60144  0.55850  1.0000
  C   C15       1.0  0.60641  0.55850  0.60144  1.0000
  C   C16       1.0  0.89359  0.39857  0.44150  1.0000
  C   C17       1.0  0.31866  0.36877  0.55397  1.0000
  C   C18       1.0  0.18134  0.44603  0.63123  1.0000
  C   C19       1.0  0.68134  0.63123  0.44604  1.0000
  C   C20       1.0  0.81866  0.55397  0.36877  1.0000
  C   C21       1.0  0.17485  0.67712  0.40324  1.0000
  C   C22       1.0  0.32515  0.59676  0.32288  1.0000
  C   C23       1.0  0.82515  0.32288  0.59676  1.0000
  C   C24       1.0  0.67485  0.40324  0.67712  1.0000
  Br  Br1       1.0  0.00310  0.19149  0.02276  1.0000
  Br  Br2       1.0  0.49690  0.97724  0.80851  1.0000
  Br  Br3       1.0  0.99690  0.80851  0.97724  1.0000
  Br  Br4       1.0  0.50310  0.02275  0.19149  1.0000
  N   N1        1.0  0.39746  0.67195  0.17767  1.0000
  N   N2        1.0  0.10255  0.82233  0.32805  1.0000
  N   N3        1.0  0.60255  0.32805  0.82233  1.0000
  N   N4        1.0  0.89746  0.17767  0.67194  1.0000
