data_image0
_chemical_formula_structural       K2H22C14S2O18
_chemical_formula_sum              "K2 H22 C14 S2 O18"
_cell_length_a       7.15486
_cell_length_b       7.23095
_cell_length_c       11.9449
_cell_angle_alpha    87.5191
_cell_angle_beta     81.1439
_cell_angle_gamma    73.376

_space_group_name_H-M_alt    "P 1"
_space_group_IT_number       1

loop_
  _space_group_symop_operation_xyz
  'x, y, z'

loop_
  _atom_site_type_symbol
  _atom_site_label
  _atom_site_symmetry_multiplicity
  _atom_site_fract_x
  _atom_site_fract_y
  _atom_site_fract_z
  _atom_site_occupancy
  K   K1        1.0  0.77761  0.92913  0.89716  1.0000
  K   K2        1.0  0.22240  0.07087  0.10285  1.0000
  H   H1        1.0  0.15100  0.78466  0.64447  1.0000
  H   H2        1.0  0.84900  0.21533  0.35553  1.0000
  H   H3        1.0  0.58320  0.89167  0.65569  1.0000
  H   H4        1.0  0.41680  0.10834  0.34431  1.0000
  H   H5        1.0  0.24384  0.59247  0.83967  1.0000
  H   H6        1.0  0.75616  0.40753  0.16033  1.0000
  H   H7        1.0  0.18749  0.72759  0.94677  1.0000
  H   H8        1.0  0.81252  0.27240  0.05322  1.0000
  H   H9        1.0  0.48288  0.33397  0.02723  1.0000
  H   H10       1.0  0.51711  0.66603  0.97277  1.0000
  H   H11       1.0  0.37634  0.31197  0.92482  1.0000
  H   H12       1.0  0.62366  0.68803  0.07518  1.0000
  H   H13       1.0  0.37367  0.87000  0.80405  1.0000
  H   H14       1.0  0.62634  0.13000  0.19595  1.0000
  H   H15       1.0  0.36665  0.09079  0.77972  1.0000
  H   H16       1.0  0.63335  0.90922  0.22028  1.0000
  H   H17       1.0  0.38504  0.58632  0.21516  1.0000
  H   H18       1.0  0.61496  0.41368  0.78484  1.0000
  H   H19       1.0  0.50073  0.62483  0.39622  1.0000
  H   H20       1.0  0.49927  0.37517  0.60378  1.0000
  H   H21       1.0  0.78143  0.76202  0.38120  1.0000
  H   H22       1.0  0.21858  0.23798  0.61880  1.0000
  C   C1        1.0  0.27884  0.63475  0.29113  1.0000
  C   C2        1.0  0.72115  0.36525  0.70887  1.0000
  C   C3        1.0  0.34391  0.65744  0.39150  1.0000
  C   C4        1.0  0.65609  0.34256  0.60850  1.0000
  C   C5        1.0  0.20708  0.71858  0.49009  1.0000
  C   C6        1.0  0.79291  0.28143  0.50991  1.0000
  C   C7        1.0  0.00204  0.75675  0.48543  1.0000
  C   C8        1.0  0.99795  0.24325  0.51457  1.0000
  C   C9        1.0  0.93861  0.73373  0.38291  1.0000
  C   C10       1.0  0.06138  0.26627  0.61709  1.0000
  C   C11       1.0  0.07556  0.67405  0.28646  1.0000
  C   C12       1.0  0.92444  0.32595  0.71355  1.0000
  C   C13       1.0  0.86047  0.81894  0.58905  1.0000
  C   C14       1.0  0.13952  0.18106  0.41095  1.0000
  S   S1        1.0  0.99852  0.64245  0.15630  1.0000
  S   S2        1.0  0.00148  0.35756  0.84370  1.0000
  O   O1        1.0  0.27408  0.73759  0.58648  1.0000
  O   O2        1.0  0.72592  0.26240  0.41352  1.0000
  O   O3        1.0  0.91861  0.84294  0.68008  1.0000
  O   O4        1.0  0.08138  0.15707  0.31992  1.0000
  O   O5        1.0  0.67355  0.84687  0.57982  1.0000
  O   O6        1.0  0.32645  0.15313  0.42017  1.0000
  O   O7        1.0  0.78655  0.64708  0.18637  1.0000
  O   O8        1.0  0.21345  0.35293  0.81363  1.0000
  O   O9        1.0  0.12387  0.45790  0.10934  1.0000
  O   O10       1.0  0.87613  0.54210  0.89066  1.0000
  O   O11       1.0  0.01748  0.80713  0.08149  1.0000
  O   O12       1.0  0.98252  0.19287  0.91851  1.0000
  O   O13       1.0  0.27268  0.70214  0.87253  1.0000
  O   O14       1.0  0.72732  0.29786  0.12747  1.0000
  O   O15       1.0  0.48812  0.24914  0.96479  1.0000
  O   O16       1.0  0.51189  0.75086  0.03520  1.0000
  O   O17       1.0  0.45335  0.95780  0.77164  1.0000
  O   O18       1.0  0.54666  0.04221  0.22836  1.0000
