data_image0
_chemical_formula_structural       K2H22C14S2O18
_chemical_formula_sum              "K2 H22 C14 S2 O18"
_cell_length_a       7.16972
_cell_length_b       7.24026
_cell_length_c       11.9333
_cell_angle_alpha    87.3342
_cell_angle_beta     81.1074
_cell_angle_gamma    73.1205

_space_group_name_H-M_alt    "P 1"
_space_group_IT_number       1

loop_
  _space_group_symop_operation_xyz
  'x, y, z'

loop_
  _atom_site_type_symbol
  _atom_site_label
  _atom_site_symmetry_multiplicity
  _atom_site_fract_x
  _atom_site_fract_y
  _atom_site_fract_z
  _atom_site_occupancy
  K   K1        1.0  0.72261  0.57043  0.10280  1.0000
  K   K2        1.0  0.27739  0.42957  0.89720  1.0000
  H   H1        1.0  0.65004  0.28643  0.64395  1.0000
  H   H2        1.0  0.34996  0.71357  0.35605  1.0000
  H   H3        1.0  0.08338  0.39184  0.65504  1.0000
  H   H4        1.0  0.91662  0.60816  0.34496  1.0000
  H   H5        1.0  0.88537  0.08339  0.21516  1.0000
  H   H6        1.0  0.11464  0.91660  0.78484  1.0000
  H   H7        1.0  0.00052  0.12367  0.39604  1.0000
  H   H8        1.0  0.99948  0.87633  0.60396  1.0000
  H   H9        1.0  0.28225  0.26110  0.38085  1.0000
  H   H10       1.0  0.71776  0.73890  0.61915  1.0000
  H   H11       1.0  0.25742  0.90604  0.16145  1.0000
  H   H12       1.0  0.74258  0.09396  0.83855  1.0000
  H   H13       1.0  0.31234  0.77119  0.05448  1.0000
  H   H14       1.0  0.68766  0.22881  0.94552  1.0000
  H   H15       1.0  0.12436  0.18844  0.07564  1.0000
  H   H16       1.0  0.87564  0.81156  0.92436  1.0000
  H   H17       1.0  0.13322  0.40900  0.22102  1.0000
  H   H18       1.0  0.86678  0.59100  0.77898  1.0000
  H   H19       1.0  0.02215  0.16399  0.97234  1.0000
  H   H20       1.0  0.97785  0.83600  0.02766  1.0000
  H   H21       1.0  0.12613  0.62964  0.19715  1.0000
  H   H22       1.0  0.87387  0.37036  0.80286  1.0000
  C   C1        1.0  0.57614  0.17246  0.28631  1.0000
  C   C2        1.0  0.42386  0.82754  0.71369  1.0000
  C   C3        1.0  0.77915  0.13269  0.29108  1.0000
  C   C4        1.0  0.22085  0.86731  0.70892  1.0000
  C   C5        1.0  0.84391  0.15613  0.39139  1.0000
  C   C6        1.0  0.15609  0.84387  0.60861  1.0000
  C   C7        1.0  0.70703  0.21823  0.48987  1.0000
  C   C8        1.0  0.29297  0.78177  0.51013  1.0000
  C   C9        1.0  0.50222  0.25642  0.48515  1.0000
  C   C10       1.0  0.49777  0.74359  0.51485  1.0000
  C   C11       1.0  0.43919  0.23270  0.38270  1.0000
  C   C12       1.0  0.56081  0.76731  0.61730  1.0000
  C   C13       1.0  0.36050  0.31899  0.58866  1.0000
  C   C14       1.0  0.63950  0.68101  0.41134  1.0000
  S   S1        1.0  0.49952  0.14159  0.15592  1.0000
  S   S2        1.0  0.50048  0.85841  0.84408  1.0000
  O   O1        1.0  0.51842  0.30639  0.08108  1.0000
  O   O2        1.0  0.48158  0.69361  0.91892  1.0000
  O   O3        1.0  0.62518  0.95704  0.10898  1.0000
  O   O4        1.0  0.37483  0.04296  0.89102  1.0000
  O   O5        1.0  0.28788  0.14653  0.18589  1.0000
  O   O6        1.0  0.71212  0.85347  0.81412  1.0000
  O   O7        1.0  0.77347  0.23854  0.58621  1.0000
  O   O8        1.0  0.22654  0.76146  0.41378  1.0000
  O   O9        1.0  0.17394  0.34663  0.57934  1.0000
  O   O10       1.0  0.82606  0.65337  0.42066  1.0000
  O   O11       1.0  0.41799  0.34430  0.67961  1.0000
  O   O12       1.0  0.58201  0.65570  0.32039  1.0000
  O   O13       1.0  0.22929  0.79570  0.12942  1.0000
  O   O14       1.0  0.77071  0.20430  0.87057  1.0000
  O   O15       1.0  0.01235  0.24924  0.03524  1.0000
  O   O16       1.0  0.98765  0.75076  0.96476  1.0000
  O   O17       1.0  0.04609  0.54200  0.22885  1.0000
  O   O18       1.0  0.95391  0.45800  0.77115  1.0000
