data_image0
_chemical_formula_structural       Ni2H24C24N4Cl4
_chemical_formula_sum              "Ni2 H24 C24 N4 Cl4"
_cell_length_a       5.2239
_cell_length_b       8.8204
_cell_length_c       13.6842
_cell_angle_alpha    88.1139
_cell_angle_beta     82.3222
_cell_angle_gamma    83.3007

_space_group_name_H-M_alt    "P 1"
_space_group_IT_number       1

loop_
  _space_group_symop_operation_xyz
  'x, y, z'

loop_
  _atom_site_type_symbol
  _atom_site_label
  _atom_site_symmetry_multiplicity
  _atom_site_fract_x
  _atom_site_fract_y
  _atom_site_fract_z
  _atom_site_occupancy
  Ni  Ni1       1.0  0.90934  0.53655  0.74055  1.0000
  Ni  Ni2       1.0  0.09065  0.46345  0.25945  1.0000
  H   H1        1.0  0.48986  0.53363  0.61563  1.0000
  H   H2        1.0  0.51012  0.46637  0.38437  1.0000
  H   H3        1.0  0.28225  0.33823  0.53734  1.0000
  H   H4        1.0  0.71775  0.66177  0.46265  1.0000
  H   H5        1.0  0.78632  0.99186  0.67064  1.0000
  H   H6        1.0  0.21365  0.00815  0.32936  1.0000
  H   H7        1.0  0.97270  0.20389  0.74640  1.0000
  H   H8        1.0  0.02730  0.79612  0.25362  1.0000
  H   H9        1.0  0.21625  0.06913  0.52697  1.0000
  H   H10       1.0  0.78375  0.93087  0.47302  1.0000
  H   H11       1.0  0.38456  0.92631  0.59643  1.0000
  H   H12       1.0  0.61544  0.07370  0.40357  1.0000
  H   H13       1.0  0.44011  0.74210  0.70773  1.0000
  H   H14       1.0  0.55988  0.25790  0.29227  1.0000
  H   H15       1.0  0.07922  0.89220  0.80986  1.0000
  H   H16       1.0  0.92078  0.10780  0.19014  1.0000
  H   H17       1.0  0.42708  0.71900  0.06692  1.0000
  H   H18       1.0  0.57294  0.28100  0.93308  1.0000
  H   H19       1.0  0.77386  0.57394  0.95370  1.0000
  H   H20       1.0  0.22615  0.42606  0.04630  1.0000
  H   H21       1.0  0.82836  0.86874  0.01272  1.0000
  H   H22       1.0  0.17165  0.13125  0.98729  1.0000
  H   H23       1.0  0.05607  0.89957  0.09101  1.0000
  H   H24       1.0  0.94395  0.10043  0.90899  1.0000
  C   C1        1.0  0.55038  0.41269  0.62686  1.0000
  C   C2        1.0  0.44961  0.58731  0.37313  1.0000
  C   C3        1.0  0.43476  0.30279  0.58332  1.0000
  C   C4        1.0  0.56524  0.69720  0.41667  1.0000
  C   C5        1.0  0.51693  0.14790  0.59771  1.0000
  C   C6        1.0  0.48305  0.85211  0.40229  1.0000
  C   C7        1.0  0.71306  0.11112  0.65797  1.0000
  C   C8        1.0  0.28696  0.88889  0.34203  1.0000
  C   C9        1.0  0.81894  0.22692  0.69951  1.0000
  C   C10       1.0  0.18105  0.77309  0.30049  1.0000
  C   C11       1.0  0.40844  0.02608  0.54717  1.0000
  C   C12       1.0  0.59156  0.97392  0.45283  1.0000
  C   C13       1.0  0.43107  0.74078  0.78764  1.0000
  C   C14       1.0  0.56892  0.25920  0.21238  1.0000
  C   C15       1.0  0.23032  0.82546  0.84583  1.0000
  C   C16       1.0  0.76967  0.17454  0.15418  1.0000
  C   C17       1.0  0.22365  0.82267  0.94865  1.0000
  C   C18       1.0  0.77639  0.17732  0.05135  1.0000
  C   C19       1.0  0.42186  0.72917  0.98755  1.0000
  C   C20       1.0  0.57815  0.27083  0.01245  1.0000
  C   C21       1.0  0.61667  0.64672  0.92508  1.0000
  C   C22       1.0  0.38332  0.35328  0.07492  1.0000
  C   C23       1.0  0.01436  0.91500  0.01464  1.0000
  C   C24       1.0  0.98566  0.08499  0.98537  1.0000
  N   N1        1.0  0.74072  0.37618  0.68377  1.0000
  N   N2        1.0  0.25928  0.62382  0.31623  1.0000
  N   N3        1.0  0.62359  0.65343  0.82620  1.0000
  N   N4        1.0  0.37641  0.34658  0.17380  1.0000
  Cl  Cl1       1.0  0.98055  0.70064  0.61497  1.0000
  Cl  Cl2       1.0  0.01944  0.29937  0.38502  1.0000
  Cl  Cl3       1.0  0.13963  0.40516  0.84658  1.0000
  Cl  Cl4       1.0  0.86037  0.59483  0.15342  1.0000
