data_image0
_chemical_formula_structural       CdH24C28N12O6
_chemical_formula_sum              "Cd1 H24 C28 N12 O6"
_cell_length_a       7.71254
_cell_length_b       8.74353
_cell_length_c       12.2076
_cell_angle_alpha    112.916
_cell_angle_beta     91.6639
_cell_angle_gamma    100.069

_space_group_name_H-M_alt    "P 1"
_space_group_IT_number       1

loop_
  _space_group_symop_operation_xyz
  'x, y, z'

loop_
  _atom_site_type_symbol
  _atom_site_label
  _atom_site_symmetry_multiplicity
  _atom_site_fract_x
  _atom_site_fract_y
  _atom_site_fract_z
  _atom_site_occupancy
  Cd  Cd1       1.0  0.00001  0.50000  0.49999  1.0000
  H   H1        1.0  0.34745  0.44477  0.55272  1.0000
  H   H2        1.0  0.65256  0.55523  0.44729  1.0000
  H   H3        1.0  0.31603  0.63016  0.63485  1.0000
  H   H4        1.0  0.68396  0.36985  0.36515  1.0000
  H   H5        1.0  0.40180  0.03368  0.71607  1.0000
  H   H6        1.0  0.59821  0.96631  0.28393  1.0000
  H   H7        1.0  0.67169  0.32516  0.13365  1.0000
  H   H8        1.0  0.32829  0.67482  0.86636  1.0000
  H   H9        1.0  0.68388  0.01629  0.01477  1.0000
  H   H10       1.0  0.31612  0.98370  0.98521  1.0000
  H   H11       1.0  0.21959  0.16885  0.17853  1.0000
  H   H12       1.0  0.78041  0.83115  0.82146  1.0000
  H   H13       1.0  0.93125  0.61240  0.25559  1.0000
  H   H14       1.0  0.06876  0.38763  0.74440  1.0000
  H   H15       1.0  0.02080  0.87096  0.21644  1.0000
  H   H16       1.0  0.97921  0.12907  0.78356  1.0000
  H   H17       1.0  0.21863  0.12796  0.37269  1.0000
  H   H18       1.0  0.78138  0.87206  0.62732  1.0000
  H   H19       1.0  0.23485  0.83138  0.58407  1.0000
  H   H20       1.0  0.76517  0.16863  0.41593  1.0000
  H   H21       1.0  0.81533  0.57852  0.91956  1.0000
  H   H22       1.0  0.18467  0.42147  0.08046  1.0000
  H   H23       1.0  0.46028  0.15340  0.94542  1.0000
  H   H24       1.0  0.53969  0.84658  0.05458  1.0000
  C   C1        1.0  0.88590  0.20438  0.22658  1.0000
  C   C2        1.0  0.11409  0.79560  0.77340  1.0000
  C   C3        1.0  0.94475  0.10015  0.10882  1.0000
  C   C4        1.0  0.05523  0.89983  0.89117  1.0000
  C   C5        1.0  0.82208  0.00672  0.00773  1.0000
  C   C6        1.0  0.17791  0.99326  0.99226  1.0000
  C   C7        1.0  0.12441  0.09362  0.10008  1.0000
  C   C8        1.0  0.87557  0.90636  0.89991  1.0000
  C   C9        1.0  0.02014  0.72316  0.32196  1.0000
  C   C10       1.0  0.97988  0.27686  0.67804  1.0000
  C   C11       1.0  0.07073  0.86939  0.30033  1.0000
  C   C12       1.0  0.92929  0.13064  0.69967  1.0000
  C   C13       1.0  0.18248  0.01090  0.38627  1.0000
  C   C14       1.0  0.81754  0.98912  0.61373  1.0000
  C   C15       1.0  0.24488  0.00050  0.49204  1.0000
  C   C16       1.0  0.75513  0.99951  0.50795  1.0000
  C   C17       1.0  0.18980  0.84765  0.50469  1.0000
  C   C18       1.0  0.81022  0.15236  0.49531  1.0000
  C   C19       1.0  0.35881  0.14147  0.58887  1.0000
  C   C20       1.0  0.64120  0.85854  0.41114  1.0000
  C   C21       1.0  0.51965  0.29446  0.76124  1.0000
  C   C22       1.0  0.48034  0.70553  0.23877  1.0000
  C   C23       1.0  0.60447  0.34376  0.87991  1.0000
  C   C24       1.0  0.39551  0.65622  0.12010  1.0000
  C   C25       1.0  0.74239  0.48400  0.94717  1.0000
  C   C26       1.0  0.25760  0.51598  0.05284  1.0000
  C   C27       1.0  0.56061  0.26345  0.95702  1.0000
  C   C28       1.0  0.43937  0.73654  0.04299  1.0000
  N   N1        1.0  0.07857  0.71358  0.42343  1.0000
  N   N2        1.0  0.92145  0.28644  0.57656  1.0000
  N   N3        1.0  0.42169  0.13551  0.69332  1.0000
  N   N4        1.0  0.57832  0.86450  0.30669  1.0000
  N   N5        1.0  0.41688  0.29658  0.59387  1.0000
  N   N6        1.0  0.58313  0.70344  0.40614  1.0000
  N   N7        1.0  0.51736  0.39310  0.70143  1.0000
  N   N8        1.0  0.48265  0.60691  0.29859  1.0000
  N   N9        1.0  0.66653  0.35421  0.05991  1.0000
  N   N10       1.0  0.33345  0.64577  0.94010  1.0000
  N   N11       1.0  0.77980  0.48885  0.05639  1.0000
  N   N12       1.0  0.22017  0.51112  0.94363  1.0000
  O   O1        1.0  0.71955  0.20478  0.23169  1.0000
  O   O2        1.0  0.28044  0.79519  0.76830  1.0000
  O   O3        1.0  0.00625  0.28279  0.31323  1.0000
  O   O4        1.0  0.99374  0.71721  0.68676  1.0000
  O   O5        1.0  0.29956  0.54374  0.55122  1.0000
  O   O6        1.0  0.70045  0.45627  0.44878  1.0000
