data_image0
_chemical_formula_structural       Sm2H18C28N2O16
_chemical_formula_sum              "Sm2 H18 C28 N2 O16"
_cell_length_a       7.28968
_cell_length_b       8.58856
_cell_length_c       11.7857
_cell_angle_alpha    75.4658
_cell_angle_beta     87.0582
_cell_angle_gamma    85.4153

_space_group_name_H-M_alt    "P 1"
_space_group_IT_number       1

loop_
  _space_group_symop_operation_xyz
  'x, y, z'

loop_
  _atom_site_type_symbol
  _atom_site_label
  _atom_site_symmetry_multiplicity
  _atom_site_fract_x
  _atom_site_fract_y
  _atom_site_fract_z
  _atom_site_occupancy
  Sm  Sm1       1.0  0.29989  0.19267  0.49341  1.0000
  Sm  Sm2       1.0  0.70011  0.80732  0.50659  1.0000
  H   H1        1.0  0.90492  0.19904  0.46545  1.0000
  H   H2        1.0  0.09508  0.80096  0.53455  1.0000
  H   H3        1.0  0.90931  0.38720  0.43390  1.0000
  H   H4        1.0  0.09069  0.61280  0.56610  1.0000
  H   H5        1.0  0.89243  0.11998  0.15452  1.0000
  H   H6        1.0  0.10756  0.88002  0.84548  1.0000
  H   H7        1.0  0.35647  0.23960  0.91213  1.0000
  H   H8        1.0  0.64352  0.76040  0.08787  1.0000
  H   H9        1.0  0.56505  0.10530  0.07123  1.0000
  H   H10       1.0  0.43495  0.89470  0.92877  1.0000
  H   H11       1.0  0.82360  0.36923  0.06696  1.0000
  H   H12       1.0  0.17641  0.63078  0.93304  1.0000
  H   H13       1.0  0.61661  0.55590  0.92413  1.0000
  H   H14       1.0  0.38339  0.44411  0.07586  1.0000
  H   H15       1.0  0.93371  0.39965  0.64636  1.0000
  H   H16       1.0  0.06628  0.60034  0.35364  1.0000
  H   H17       1.0  0.12572  0.21873  0.79710  1.0000
  H   H18       1.0  0.87428  0.78126  0.20290  1.0000
  C   C1        1.0  0.48584  0.97360  0.29900  1.0000
  C   C2        1.0  0.51416  0.02640  0.70100  1.0000
  C   C3        1.0  0.35016  0.04935  0.20471  1.0000
  C   C4        1.0  0.64984  0.95065  0.79529  1.0000
  C   C5        1.0  0.15818  0.05222  0.22563  1.0000
  C   C6        1.0  0.84182  0.94778  0.77437  1.0000
  C   C7        1.0  0.03987  0.12324  0.13480  1.0000
  C   C8        1.0  0.96013  0.87676  0.86520  1.0000
  C   C9        1.0  0.10945  0.19662  0.02370  1.0000
  C   C10       1.0  0.89056  0.80338  0.97630  1.0000
  C   C11       1.0  0.29955  0.18683  0.99959  1.0000
  C   C12       1.0  0.70045  0.81318  0.00041  1.0000
  C   C13       1.0  0.41709  0.11189  0.09007  1.0000
  C   C14       1.0  0.58291  0.88811  0.90994  1.0000
  C   C15       1.0  0.07217  0.97895  0.34349  1.0000
  C   C16       1.0  0.92783  0.02105  0.65650  1.0000
  C   C17       1.0  0.83951  0.38046  0.97300  1.0000
  C   C18       1.0  0.16049  0.61954  0.02700  1.0000
  C   C19       1.0  0.72797  0.48285  0.89384  1.0000
  C   C20       1.0  0.27203  0.51715  0.10616  1.0000
  C   C21       1.0  0.76390  0.50791  0.76955  1.0000
  C   C22       1.0  0.23609  0.49209  0.23045  1.0000
  C   C23       1.0  0.90725  0.39995  0.73786  1.0000
  C   C24       1.0  0.09275  0.60005  0.26214  1.0000
  C   C25       1.0  0.01454  0.29842  0.82058  1.0000
  C   C26       1.0  0.98546  0.70158  0.17942  1.0000
  C   C27       1.0  0.59179  0.45732  0.48368  1.0000
  C   C28       1.0  0.40822  0.54271  0.51633  1.0000
  N   N1        1.0  0.98563  0.29006  0.93791  1.0000
  N   N2        1.0  0.01437  0.70994  0.06209  1.0000
  O   O1        1.0  0.51660  0.04716  0.37807  1.0000
  O   O2        1.0  0.48341  0.95284  0.62193  1.0000
  O   O3        1.0  0.56912  0.84035  0.29601  1.0000
  O   O4        1.0  0.43087  0.15966  0.70399  1.0000
  O   O5        1.0  0.16279  0.97580  0.43379  1.0000
  O   O6        1.0  0.83721  0.02420  0.56621  1.0000
  O   O7        1.0  0.91570  0.92402  0.34553  1.0000
  O   O8        1.0  0.08430  0.07598  0.65447  1.0000
  O   O9        1.0  0.67491  0.61911  0.69688  1.0000
  O   O10       1.0  0.32509  0.38088  0.30311  1.0000
  O   O11       1.0  0.58972  0.31309  0.47877  1.0000
  O   O12       1.0  0.41028  0.68689  0.52123  1.0000
  O   O13       1.0  0.73391  0.53934  0.46448  1.0000
  O   O14       1.0  0.26608  0.46065  0.53551  1.0000
  O   O15       1.0  0.98589  0.28795  0.43014  1.0000
  O   O16       1.0  0.01411  0.71205  0.56986  1.0000
