data_image0
_chemical_formula_structural       Nd2H18C28N2O16
_chemical_formula_sum              "Nd2 H18 C28 N2 O16"
_cell_length_a       7.32916
_cell_length_b       8.70852
_cell_length_c       11.7424
_cell_angle_alpha    75.5231
_cell_angle_beta     86.8003
_cell_angle_gamma    85.178

_space_group_name_H-M_alt    "P 1"
_space_group_IT_number       1

loop_
  _space_group_symop_operation_xyz
  'x, y, z'

loop_
  _atom_site_type_symbol
  _atom_site_label
  _atom_site_symmetry_multiplicity
  _atom_site_fract_x
  _atom_site_fract_y
  _atom_site_fract_z
  _atom_site_occupancy
  Nd  Nd1       1.0  0.29917  0.19323  0.49277  1.0000
  Nd  Nd2       1.0  0.70082  0.80677  0.50723  1.0000
  H   H1        1.0  0.90215  0.20089  0.46408  1.0000
  H   H2        1.0  0.09785  0.79911  0.53592  1.0000
  H   H3        1.0  0.90616  0.38623  0.43234  1.0000
  H   H4        1.0  0.09384  0.61377  0.56767  1.0000
  H   H5        1.0  0.89515  0.12023  0.15525  1.0000
  H   H6        1.0  0.10486  0.87977  0.84475  1.0000
  H   H7        1.0  0.35523  0.24097  0.91048  1.0000
  H   H8        1.0  0.64477  0.75903  0.08952  1.0000
  H   H9        1.0  0.56413  0.10605  0.06825  1.0000
  H   H10       1.0  0.43587  0.89396  0.93175  1.0000
  H   H11       1.0  0.82787  0.36922  0.07057  1.0000
  H   H12       1.0  0.17213  0.63078  0.92943  1.0000
  H   H13       1.0  0.62085  0.55589  0.92979  1.0000
  H   H14       1.0  0.37916  0.44411  0.07021  1.0000
  H   H15       1.0  0.93050  0.40349  0.64696  1.0000
  H   H16       1.0  0.06950  0.59651  0.35304  1.0000
  H   H17       1.0  0.12315  0.22214  0.79624  1.0000
  H   H18       1.0  0.87685  0.77786  0.20376  1.0000
  C   C1        1.0  0.48700  0.97342  0.29666  1.0000
  C   C2        1.0  0.51300  0.02658  0.70334  1.0000
  C   C3        1.0  0.35116  0.04857  0.20297  1.0000
  C   C4        1.0  0.64884  0.95144  0.79703  1.0000
  C   C5        1.0  0.16030  0.05099  0.22501  1.0000
  C   C6        1.0  0.83970  0.94901  0.77499  1.0000
  C   C7        1.0  0.04189  0.12331  0.13494  1.0000
  C   C8        1.0  0.95812  0.87669  0.86506  1.0000
  C   C9        1.0  0.11040  0.19787  0.02369  1.0000
  C   C10       1.0  0.88960  0.80212  0.97631  1.0000
  C   C11       1.0  0.29936  0.18815  0.99833  1.0000
  C   C12       1.0  0.70064  0.81185  0.00166  1.0000
  C   C13       1.0  0.41701  0.11249  0.08799  1.0000
  C   C14       1.0  0.58299  0.88752  0.91200  1.0000
  C   C15       1.0  0.07521  0.97621  0.34303  1.0000
  C   C16       1.0  0.92479  0.02378  0.65697  1.0000
  C   C17       1.0  0.84220  0.38129  0.97606  1.0000
  C   C18       1.0  0.15780  0.61871  0.02394  1.0000
  C   C19       1.0  0.73050  0.48359  0.89792  1.0000
  C   C20       1.0  0.26950  0.51641  0.10208  1.0000
  C   C21       1.0  0.76397  0.50882  0.77284  1.0000
  C   C22       1.0  0.23603  0.49118  0.22716  1.0000
  C   C23       1.0  0.90583  0.40252  0.73925  1.0000
  C   C24       1.0  0.09417  0.59749  0.26075  1.0000
  C   C25       1.0  0.01342  0.30115  0.82100  1.0000
  C   C26       1.0  0.98658  0.69885  0.17900  1.0000
  C   C27       1.0  0.59175  0.45737  0.48410  1.0000
  C   C28       1.0  0.40825  0.54263  0.51591  1.0000
  N   N1        1.0  0.98634  0.29175  0.93908  1.0000
  N   N2        1.0  0.01366  0.70825  0.06092  1.0000
  O   O1        1.0  0.51777  0.04688  0.37546  1.0000
  O   O2        1.0  0.48223  0.95312  0.62454  1.0000
  O   O3        1.0  0.57005  0.84183  0.29346  1.0000
  O   O4        1.0  0.42994  0.15817  0.70655  1.0000
  O   O5        1.0  0.16379  0.97322  0.43401  1.0000
  O   O6        1.0  0.83622  0.02678  0.56599  1.0000
  O   O7        1.0  0.92064  0.92078  0.34448  1.0000
  O   O8        1.0  0.07936  0.07922  0.65552  1.0000
  O   O9        1.0  0.67425  0.61864  0.70074  1.0000
  O   O10       1.0  0.32575  0.38136  0.29926  1.0000
  O   O11       1.0  0.59012  0.31484  0.47977  1.0000
  O   O12       1.0  0.40988  0.68516  0.52024  1.0000
  O   O13       1.0  0.73323  0.53780  0.46488  1.0000
  O   O14       1.0  0.26677  0.46219  0.53513  1.0000
  O   O15       1.0  0.98226  0.28833  0.42773  1.0000
  O   O16       1.0  0.01774  0.71167  0.57227  1.0000
