data_image0
_chemical_formula_structural       Ag4H12C48N24
_chemical_formula_sum              "Ag4 H12 C48 N24"
_cell_length_a       3.90251
_cell_length_b       18.3373
_cell_length_c       19.7915
_cell_angle_alpha    65.3081
_cell_angle_beta     84.3007
_cell_angle_gamma    83.8362

_space_group_name_H-M_alt    "P 1"
_space_group_IT_number       1

loop_
  _space_group_symop_operation_xyz
  'x, y, z'

loop_
  _atom_site_type_symbol
  _atom_site_label
  _atom_site_symmetry_multiplicity
  _atom_site_fract_x
  _atom_site_fract_y
  _atom_site_fract_z
  _atom_site_occupancy
  Ag  Ag1       1.0  0.62883  0.45366  0.69465  1.0000
  Ag  Ag2       1.0  0.77619  0.04637  0.80572  1.0000
  Ag  Ag3       1.0  0.37118  0.54634  0.30535  1.0000
  Ag  Ag4       1.0  0.22380  0.95363  0.19428  1.0000
  H   H1        1.0  0.71167  0.65431  0.81494  1.0000
  H   H2        1.0  0.18136  0.84582  0.68516  1.0000
  H   H3        1.0  0.28830  0.34569  0.18506  1.0000
  H   H4        1.0  0.81864  0.15418  0.31484  1.0000
  H   H5        1.0  0.11089  0.59880  0.84634  1.0000
  H   H6        1.0  0.55646  0.90116  0.65368  1.0000
  H   H7        1.0  0.88908  0.40120  0.15366  1.0000
  H   H8        1.0  0.44355  0.09884  0.34632  1.0000
  H   H9        1.0  0.72042  0.56175  0.89863  1.0000
  H   H10       1.0  0.18110  0.93838  0.60148  1.0000
  H   H11       1.0  0.27955  0.43825  0.10137  1.0000
  H   H12       1.0  0.81890  0.06162  0.39852  1.0000
  C   C1        1.0  0.83759  0.59344  0.84214  1.0000
  C   C2        1.0  0.27354  0.90665  0.65793  1.0000
  C   C3        1.0  0.16239  0.40656  0.15786  1.0000
  C   C4        1.0  0.72647  0.09335  0.34207  1.0000
  C   C5        1.0  0.80536  0.54842  0.79860  1.0000
  C   C6        1.0  0.15295  0.95166  0.70156  1.0000
  C   C7        1.0  0.19463  0.45158  0.20140  1.0000
  C   C8        1.0  0.84704  0.04834  0.29844  1.0000
  C   C9        1.0  0.09524  0.30328  0.55584  1.0000
  C   C10       1.0  0.95391  0.19685  0.94433  1.0000
  C   C11       1.0  0.90478  0.69672  0.44416  1.0000
  C   C12       1.0  0.04609  0.80315  0.05567  1.0000
  C   C13       1.0  0.28289  0.22678  0.58421  1.0000
  C   C14       1.0  0.09314  0.27334  0.91588  1.0000
  C   C15       1.0  0.71712  0.77322  0.41579  1.0000
  C   C16       1.0  0.90686  0.72666  0.08412  1.0000
  C   C17       1.0  0.33673  0.19900  0.52646  1.0000
  C   C18       1.0  0.06157  0.30115  0.97361  1.0000
  C   C19       1.0  0.66327  0.80100  0.47354  1.0000
  C   C20       1.0  0.93843  0.69885  0.02639  1.0000
  C   C21       1.0  0.18042  0.25821  0.46241  1.0000
  C   C22       1.0  0.90065  0.24201  0.03771  1.0000
  C   C23       1.0  0.81958  0.74179  0.53759  1.0000
  C   C24       1.0  0.09935  0.75799  0.96229  1.0000
  C   C25       1.0  0.03036  0.32246  0.48063  1.0000
  C   C26       1.0  0.83347  0.17772  0.01956  1.0000
  C   C27       1.0  0.96965  0.67754  0.51937  1.0000
  C   C28       1.0  0.16654  0.82228  0.98044  1.0000
  C   C29       1.0  0.99364  0.35112  0.59506  1.0000
  C   C30       1.0  0.93936  0.14898  0.90516  1.0000
  C   C31       1.0  0.00637  0.64888  0.40494  1.0000
  C   C32       1.0  0.06064  0.85102  0.09484  1.0000
  C   C33       1.0  0.39830  0.18656  0.65632  1.0000
  C   C34       1.0  0.24069  0.31352  0.84376  1.0000
  C   C35       1.0  0.60171  0.81344  0.34368  1.0000
  C   C36       1.0  0.75930  0.68648  0.15624  1.0000
  C   C37       1.0  0.52124  0.12640  0.53241  1.0000
  C   C38       1.0  0.17935  0.37371  0.96759  1.0000
  C   C39       1.0  0.47877  0.87360  0.46759  1.0000
  C   C40       1.0  0.82065  0.62629  0.03241  1.0000
  C   C41       1.0  0.16830  0.25460  0.39306  1.0000
  C   C42       1.0  0.81604  0.24566  0.10708  1.0000
  C   C43       1.0  0.83169  0.74540  0.60694  1.0000
  C   C44       1.0  0.18396  0.75434  0.89292  1.0000
  C   C45       1.0  0.84531  0.39184  0.43321  1.0000
  C   C46       1.0  0.67056  0.10838  0.06697  1.0000
  C   C47       1.0  0.15470  0.60816  0.56679  1.0000
  C   C48       1.0  0.32945  0.89162  0.93303  1.0000
  N   N1        1.0  0.77541  0.51247  0.76333  1.0000
  N   N2        1.0  0.05200  0.98762  0.73686  1.0000
  N   N3        1.0  0.22460  0.48752  0.23667  1.0000
  N   N4        1.0  0.94800  0.01238  0.26315  1.0000
  N   N5        1.0  0.91212  0.39110  0.62776  1.0000
  N   N6        1.0  0.93027  0.10899  0.87249  1.0000
  N   N7        1.0  0.08789  0.60890  0.37224  1.0000
  N   N8        1.0  0.06972  0.89101  0.12750  1.0000
  N   N9        1.0  0.49658  0.15307  0.71631  1.0000
  N   N10       1.0  0.36487  0.34698  0.78370  1.0000
  N   N11       1.0  0.50343  0.84693  0.28369  1.0000
  N   N12       1.0  0.63514  0.65303  0.21630  1.0000
  N   N13       1.0  0.68228  0.06667  0.53831  1.0000
  N   N14       1.0  0.28653  0.43344  0.96157  1.0000
  N   N15       1.0  0.31772  0.93333  0.46169  1.0000
  N   N16       1.0  0.71347  0.56656  0.03843  1.0000
  N   N17       1.0  0.15302  0.25249  0.33520  1.0000
  N   N18       1.0  0.74122  0.24775  0.16498  1.0000
  N   N19       1.0  0.84697  0.74751  0.66480  1.0000
  N   N20       1.0  0.25877  0.75225  0.83502  1.0000
  N   N21       1.0  0.69034  0.44954  0.39364  1.0000
  N   N22       1.0  0.53406  0.05064  0.10648  1.0000
  N   N23       1.0  0.30966  0.55047  0.60636  1.0000
  N   N24       1.0  0.46594  0.94936  0.89352  1.0000
