data_image0
_chemical_formula_structural       Zn4H24C32N16O16
_chemical_formula_sum              "Zn4 H24 C32 N16 O16"
_cell_length_a       7.31737
_cell_length_b       7.44326
_cell_length_c       18.4318
_cell_angle_alpha    89.9995
_cell_angle_beta     89.9994
_cell_angle_gamma    89.9998

_space_group_name_H-M_alt    "P 1"
_space_group_IT_number       1

loop_
  _space_group_symop_operation_xyz
  'x, y, z'

loop_
  _atom_site_type_symbol
  _atom_site_label
  _atom_site_symmetry_multiplicity
  _atom_site_fract_x
  _atom_site_fract_y
  _atom_site_fract_z
  _atom_site_occupancy
  Zn  Zn1       1.0  1.00000  0.50000  0.50000  1.0000
  Zn  Zn2       1.0  1.00000  0.00000  0.00000  1.0000
  Zn  Zn3       1.0  0.50000  0.50000  0.50000  1.0000
  Zn  Zn4       1.0  0.50000  0.00000  1.00000  1.0000
  H   H1        1.0  0.04457  0.47803  0.27155  1.0000
  H   H2        1.0  0.95543  0.02197  0.77155  1.0000
  H   H3        1.0  0.54457  0.52197  0.72845  1.0000
  H   H4        1.0  0.45543  0.97802  0.22845  1.0000
  H   H5        1.0  0.95543  0.52197  0.72845  1.0000
  H   H6        1.0  0.04457  0.97802  0.22845  1.0000
  H   H7        1.0  0.45543  0.47803  0.27155  1.0000
  H   H8        1.0  0.54457  0.02197  0.77155  1.0000
  H   H9        1.0  0.03393  0.51772  0.13555  1.0000
  H   H10       1.0  0.96607  0.98228  0.63555  1.0000
  H   H11       1.0  0.53394  0.48228  0.86445  1.0000
  H   H12       1.0  0.46606  0.01772  0.36445  1.0000
  H   H13       1.0  0.96607  0.48228  0.86445  1.0000
  H   H14       1.0  0.03393  0.01772  0.36445  1.0000
  H   H15       1.0  0.46606  0.51772  0.13555  1.0000
  H   H16       1.0  0.53393  0.98227  0.63555  1.0000
  H   H17       1.0  0.62698  0.60580  0.03619  1.0000
  H   H18       1.0  0.37302  0.89420  0.53619  1.0000
  H   H19       1.0  0.12698  0.39420  0.96381  1.0000
  H   H20       1.0  0.87302  0.10580  0.46381  1.0000
  H   H21       1.0  0.37302  0.39421  0.96381  1.0000
  H   H22       1.0  0.62698  0.10580  0.46381  1.0000
  H   H23       1.0  0.87301  0.60580  0.03619  1.0000
  H   H24       1.0  0.12698  0.89420  0.53619  1.0000
  C   C1        1.0  0.74999  0.45038  0.36320  1.0000
  C   C2        1.0  0.24999  0.04962  0.86320  1.0000
  C   C3        1.0  0.25001  0.54963  0.63680  1.0000
  C   C4        1.0  0.75001  0.95038  0.13680  1.0000
  C   C5        1.0  0.75000  0.47347  0.28131  1.0000
  C   C6        1.0  0.25000  0.02653  0.78131  1.0000
  C   C7        1.0  0.25000  0.52653  0.71869  1.0000
  C   C8        1.0  0.74999  0.97347  0.21869  1.0000
  C   C9        1.0  0.91470  0.48586  0.24306  1.0000
  C   C10       1.0  0.08530  0.01414  0.74306  1.0000
  C   C11       1.0  0.41470  0.51414  0.75694  1.0000
  C   C12       1.0  0.58530  0.98586  0.25694  1.0000
  C   C13       1.0  0.08531  0.51414  0.75694  1.0000
  C   C14       1.0  0.91470  0.98586  0.25694  1.0000
  C   C15       1.0  0.58530  0.48586  0.24306  1.0000
  C   C16       1.0  0.41470  0.01414  0.74306  1.0000
  C   C17       1.0  0.91152  0.50956  0.16871  1.0000
  C   C18       1.0  0.08848  0.99045  0.66871  1.0000
  C   C19       1.0  0.41152  0.49045  0.83129  1.0000
  C   C20       1.0  0.58848  0.00955  0.33129  1.0000
  C   C21       1.0  0.08848  0.49044  0.83129  1.0000
  C   C22       1.0  0.91152  0.00955  0.33129  1.0000
  C   C23       1.0  0.58848  0.50956  0.16871  1.0000
  C   C24       1.0  0.41152  0.99044  0.66871  1.0000
  C   C25       1.0  0.75000  0.53376  0.05333  1.0000
  C   C26       1.0  0.25000  0.96624  0.55333  1.0000
  C   C27       1.0  0.25000  0.46624  0.94667  1.0000
  C   C28       1.0  0.75000  0.03376  0.44667  1.0000
  C   C29       1.0  0.75001  0.33953  0.02382  1.0000
  C   C30       1.0  0.25000  0.16047  0.52382  1.0000
  C   C31       1.0  0.24999  0.66048  0.97618  1.0000
  C   C32       1.0  0.74999  0.83953  0.47618  1.0000
  N   N1        1.0  0.75000  0.41968  0.54750  1.0000
  N   N2        1.0  0.25000  0.08030  0.04749  1.0000
  N   N3        1.0  0.25000  0.58031  0.45250  1.0000
  N   N4        1.0  0.75000  0.91970  0.95250  1.0000
  N   N5        1.0  0.75000  0.33674  0.60363  1.0000
  N   N6        1.0  0.25000  0.16324  0.10362  1.0000
  N   N7        1.0  0.25000  0.66325  0.39637  1.0000
  N   N8        1.0  0.75000  0.83675  0.89638  1.0000
  N   N9        1.0  0.75000  0.25599  0.65788  1.0000
  N   N10       1.0  0.25000  0.24400  0.15787  1.0000
  N   N11       1.0  0.25000  0.74399  0.34212  1.0000
  N   N12       1.0  0.75000  0.75600  0.84213  1.0000
  N   N13       1.0  0.75000  0.52102  0.13293  1.0000
  N   N14       1.0  0.25000  0.97898  0.63293  1.0000
  N   N15       1.0  0.25000  0.47898  0.86707  1.0000
  N   N16       1.0  0.75000  0.02102  0.36707  1.0000
  O   O1        1.0  0.90614  0.44141  0.39263  1.0000
  O   O2        1.0  0.09387  0.05859  0.89263  1.0000
  O   O3        1.0  0.40614  0.55860  0.60737  1.0000
  O   O4        1.0  0.59386  0.94141  0.10737  1.0000
  O   O5        1.0  0.09386  0.55858  0.60737  1.0000
  O   O6        1.0  0.90613  0.94141  0.10737  1.0000
  O   O7        1.0  0.59386  0.44141  0.39263  1.0000
  O   O8        1.0  0.40615  0.05859  0.89263  1.0000
  O   O9        1.0  0.90582  0.26975  0.01468  1.0000
  O   O10       1.0  0.09417  0.23025  0.51467  1.0000
  O   O11       1.0  0.40582  0.73026  0.98532  1.0000
  O   O12       1.0  0.59418  0.76975  0.48532  1.0000
  O   O13       1.0  0.09418  0.73025  0.98533  1.0000
  O   O14       1.0  0.90582  0.76975  0.48532  1.0000
  O   O15       1.0  0.59417  0.26975  0.01467  1.0000
  O   O16       1.0  0.40582  0.23025  0.51468  1.0000
