data_image0
_chemical_formula_structural       Co2Ag2H12C28N4O16
_chemical_formula_sum              "Co2 Ag2 H12 C28 N4 O16"
_cell_length_a       6.83334
_cell_length_b       6.83269
_cell_length_c       15.0084
_cell_angle_alpha    103.14
_cell_angle_beta     103.121
_cell_angle_gamma    89.9742

_space_group_name_H-M_alt    "P 1"
_space_group_IT_number       1

loop_
  _space_group_symop_operation_xyz
  'x, y, z'

loop_
  _atom_site_type_symbol
  _atom_site_label
  _atom_site_symmetry_multiplicity
  _atom_site_fract_x
  _atom_site_fract_y
  _atom_site_fract_z
  _atom_site_occupancy
  Co  Co1       1.0  0.37488  0.12505  0.74994  1.0000
  Co  Co2       1.0  0.62511  0.87494  0.25006  1.0000
  Ag  Ag1       1.0  0.87515  0.62498  0.75004  1.0000
  Ag  Ag2       1.0  0.12486  0.37502  0.24996  1.0000
  H   H1        1.0  0.81890  0.40953  0.05685  1.0000
  H   H2        1.0  0.64703  0.31932  0.55700  1.0000
  H   H3        1.0  0.91021  0.73775  0.55709  1.0000
  H   H4        1.0  0.23739  0.14719  0.05703  1.0000
  H   H5        1.0  0.18109  0.59047  0.94315  1.0000
  H   H6        1.0  0.35298  0.68069  0.44300  1.0000
  H   H7        1.0  0.08979  0.26224  0.44291  1.0000
  H   H8        1.0  0.76260  0.85282  0.94297  1.0000
  H   H9        1.0  0.57246  0.32265  0.14566  1.0000
  H   H10       1.0  0.82303  0.07296  0.64575  1.0000
  H   H11       1.0  0.42754  0.67736  0.85434  1.0000
  H   H12       1.0  0.17697  0.92705  0.35425  1.0000
  C   C1        1.0  0.72198  0.33773  0.85232  1.0000
  C   C2        1.0  0.51446  0.22217  0.35246  1.0000
  C   C3        1.0  0.83797  0.63004  0.35252  1.0000
  C   C4        1.0  0.13005  0.01454  0.85248  1.0000
  C   C5        1.0  0.27801  0.66227  0.14767  1.0000
  C   C6        1.0  0.48555  0.77782  0.64754  1.0000
  C   C7        1.0  0.16202  0.36997  0.64748  1.0000
  C   C8        1.0  0.86994  0.98545  0.14752  1.0000
  C   C9        1.0  0.61777  0.28514  0.92250  1.0000
  C   C10       1.0  0.63716  0.11797  0.42262  1.0000
  C   C11       1.0  0.78538  0.80439  0.42266  1.0000
  C   C12       1.0  0.30431  0.13720  0.92259  1.0000
  C   C13       1.0  0.38223  0.71485  0.07751  1.0000
  C   C14       1.0  0.36284  0.88203  0.57737  1.0000
  C   C15       1.0  0.21462  0.19560  0.57734  1.0000
  C   C16       1.0  0.69570  0.86280  0.07742  1.0000
  C   C17       1.0  0.67303  0.33327  0.02044  1.0000
  C   C18       1.0  0.68693  0.17336  0.52057  1.0000
  C   C19       1.0  0.83370  0.84718  0.52062  1.0000
  C   C20       1.0  0.34689  0.18691  0.02054  1.0000
  C   C21       1.0  0.32698  0.66673  0.97956  1.0000
  C   C22       1.0  0.31308  0.82664  0.47943  1.0000
  C   C23       1.0  0.16629  0.15284  0.47938  1.0000
  C   C24       1.0  0.65311  0.81309  0.97946  1.0000
  C   C25       1.0  0.53416  0.28427  0.06891  1.0000
  C   C26       1.0  0.78455  0.03449  0.56901  1.0000
  C   C27       1.0  0.46583  0.71573  0.93109  1.0000
  C   C28       1.0  0.21546  0.96552  0.43100  1.0000
  N   N1        1.0  0.43901  0.18917  0.87846  1.0000
  N   N2        1.0  0.68922  0.93913  0.37857  1.0000
  N   N3        1.0  0.56099  0.81082  0.12153  1.0000
  N   N4        1.0  0.31078  0.06087  0.62143  1.0000
  O   O1        1.0  0.62514  0.27016  0.76461  1.0000
  O   O2        1.0  0.49452  0.12525  0.26476  1.0000
  O   O3        1.0  0.77027  0.63919  0.26480  1.0000
  O   O4        1.0  0.13932  0.99458  0.76475  1.0000
  O   O5        1.0  0.37486  0.72984  0.23539  1.0000
  O   O6        1.0  0.50548  0.87475  0.73524  1.0000
  O   O7        1.0  0.22972  0.36081  0.73520  1.0000
  O   O8        1.0  0.86068  0.00542  0.23526  1.0000
  O   O9        1.0  0.87966  0.44715  0.87571  1.0000
  O   O10       1.0  0.42824  0.37991  0.37583  1.0000
  O   O11       1.0  0.94765  0.49572  0.37592  1.0000
  O   O12       1.0  0.99581  0.92840  0.87590  1.0000
  O   O13       1.0  0.12033  0.55285  0.12430  1.0000
  O   O14       1.0  0.57176  0.62009  0.62417  1.0000
  O   O15       1.0  0.05236  0.50427  0.62408  1.0000
  O   O16       1.0  0.00419  0.07160  0.12410  1.0000
