data_image0
_chemical_formula_structural       CdNiH12C14N8
_chemical_formula_sum              "Cd1 Ni1 H12 C14 N8"
_cell_length_a       7.33481
_cell_length_b       7.36011
_cell_length_c       8.79594
_cell_angle_alpha    114.72
_cell_angle_beta     105.627
_cell_angle_gamma    89.9776

_space_group_name_H-M_alt    "P 1"
_space_group_IT_number       1

loop_
  _space_group_symop_operation_xyz
  'x, y, z'

loop_
  _atom_site_type_symbol
  _atom_site_label
  _atom_site_symmetry_multiplicity
  _atom_site_fract_x
  _atom_site_fract_y
  _atom_site_fract_z
  _atom_site_occupancy
  Cd  Cd1       1.0  0.50000  0.00000  0.00000  1.0000
  Ni  Ni1       1.0  1.00000  0.49999  1.00000  1.0000
  H   H1        1.0  0.82192  0.88931  0.77940  1.0000
  H   H2        1.0  0.17809  0.11066  0.22060  1.0000
  H   H3        1.0  0.51680  0.61420  0.22845  1.0000
  H   H4        1.0  0.48319  0.38594  0.77155  1.0000
  H   H5        1.0  0.21127  0.65491  0.30984  1.0000
  H   H6        1.0  0.78872  0.34519  0.69016  1.0000
  H   H7        1.0  0.22726  0.81326  0.62662  1.0000
  H   H8        1.0  0.77276  0.18676  0.37339  1.0000
  H   H9        1.0  0.88143  0.58400  0.38857  1.0000
  H   H10       1.0  0.11868  0.19572  0.61143  1.0000
  H   H11       1.0  0.11906  0.41611  0.61214  1.0000
  H   H12       1.0  0.88082  0.80367  0.38784  1.0000
  C   C1        1.0  0.68864  0.83591  0.67233  1.0000
  C   C2        1.0  0.31134  0.16405  0.32766  1.0000
  C   C3        1.0  0.69327  0.74908  0.49861  1.0000
  C   C4        1.0  0.30673  0.25097  0.50139  1.0000
  C   C5        1.0  0.51866  0.68268  0.36549  1.0000
  C   C6        1.0  0.48132  0.31743  0.63451  1.0000
  C   C7        1.0  0.34949  0.70531  0.41077  1.0000
  C   C8        1.0  0.65051  0.29476  0.58924  1.0000
  C   C9        1.0  0.35744  0.79328  0.58687  1.0000
  C   C10       1.0  0.64255  0.20670  0.41314  1.0000
  C   C11       1.0  0.15487  0.64894  0.94996  1.0000
  C   C12       1.0  0.84552  0.69935  0.05061  1.0000
  C   C13       1.0  0.84514  0.35105  0.05003  1.0000
  C   C14       1.0  0.15449  0.30065  0.94939  1.0000
  N   N1        1.0  0.52460  0.85719  0.71493  1.0000
  N   N2        1.0  0.47541  0.14273  0.28508  1.0000
  N   N3        1.0  0.25794  0.73945  0.91741  1.0000
  N   N4        1.0  0.74258  0.82259  0.08333  1.0000
  N   N5        1.0  0.74204  0.26053  0.08256  1.0000
  N   N6        1.0  0.25746  0.17741  0.91670  1.0000
  N   N7        1.0  0.87494  0.73241  0.46496  1.0000
  N   N8        1.0  0.12505  0.26781  0.53503  1.0000
