data_image0
_chemical_formula_structural       Cu2H16C16N2O10
_chemical_formula_sum              "Cu2 H16 C16 N2 O10"
_cell_length_a       6.30083
_cell_length_b       8.67239
_cell_length_c       10.3546
_cell_angle_alpha    114.902
_cell_angle_beta     106.035
_cell_angle_gamma    89.9767

_space_group_name_H-M_alt    "P 1"
_space_group_IT_number       1

loop_
  _space_group_symop_operation_xyz
  'x, y, z'

loop_
  _atom_site_type_symbol
  _atom_site_label
  _atom_site_symmetry_multiplicity
  _atom_site_fract_x
  _atom_site_fract_y
  _atom_site_fract_z
  _atom_site_occupancy
  Cu  Cu1       1.0  0.59119  0.03400  0.14459  1.0000
  Cu  Cu2       1.0  0.40875  0.88878  0.85551  1.0000
  H   H1        1.0  0.41325  0.51096  0.10146  1.0000
  H   H2        1.0  0.58676  0.40913  0.89854  1.0000
  H   H3        1.0  0.07231  0.10577  0.29737  1.0000
  H   H4        1.0  0.92731  0.80864  0.70268  1.0000
  H   H5        1.0  0.92541  0.24314  0.63787  1.0000
  H   H6        1.0  0.07495  0.60592  0.36237  1.0000
  H   H7        1.0  0.16083  0.40644  0.72999  1.0000
  H   H8        1.0  0.83925  0.67659  0.27032  1.0000
  H   H9        1.0  0.18796  0.19964  0.72905  1.0000
  H   H10       1.0  0.81286  0.47044  0.27070  1.0000
  H   H11       1.0  0.41758  0.15296  0.42435  1.0000
  H   H12       1.0  0.58196  0.72878  0.57526  1.0000
  H   H13       1.0  0.47966  0.13930  0.59805  1.0000
  H   H14       1.0  0.52056  0.54078  0.40135  1.0000
  H   H15       1.0  0.48019  0.34439  0.59530  1.0000
  H   H16       1.0  0.51959  0.74882  0.40452  1.0000
  C   C1        1.0  0.24776  0.76120  0.03203  1.0000
  C   C2        1.0  0.75224  0.72891  0.96750  1.0000
  C   C3        1.0  0.11648  0.61416  0.02834  1.0000
  C   C4        1.0  0.88354  0.58553  0.97129  1.0000
  C   C5        1.0  0.23194  0.48997  0.05906  1.0000
  C   C6        1.0  0.76806  0.43069  0.94095  1.0000
  C   C7        1.0  0.11677  0.33592  0.02998  1.0000
  C   C8        1.0  0.88324  0.30602  0.97043  1.0000
  C   C9        1.0  0.24771  0.19409  0.03715  1.0000
  C   C10       1.0  0.75234  0.15721  0.96350  1.0000
  C   C11       1.0  0.00572  0.15059  0.39315  1.0000
  C   C12       1.0  0.99404  0.75754  0.60693  1.0000
  C   C13       1.0  0.10620  0.26768  0.66415  1.0000
  C   C14       1.0  0.89409  0.60377  0.33591  1.0000
  C   C15       1.0  0.39818  0.21077  0.53620  1.0000
  C   C16       1.0  0.60162  0.67446  0.46348  1.0000
  N   N1        1.0  0.16281  0.20556  0.52545  1.0000
  N   N2        1.0  0.83708  0.68039  0.47448  1.0000
  O   O1        1.0  0.35084  0.88692  0.15462  1.0000
  O   O2        1.0  0.64906  0.73138  0.84489  1.0000
  O   O3        1.0  0.24687  0.73326  0.90055  1.0000
  O   O4        1.0  0.75313  0.83315  0.09898  1.0000
  O   O5        1.0  0.40670  0.22324  0.15493  1.0000
  O   O6        1.0  0.59340  0.06791  0.84573  1.0000
  O   O7        1.0  0.19362  0.05765  0.91477  1.0000
  O   O8        1.0  0.80634  0.14400  0.08598  1.0000
  O   O9        1.0  0.80009  0.14843  0.37601  1.0000
  O   O10       1.0  0.19977  0.77230  0.62428  1.0000
