data_image0
_chemical_formula_structural       ZnNiH12C14N8
_chemical_formula_sum              "Zn1 Ni1 H12 C14 N8"
_cell_length_a       7.33448
_cell_length_b       7.07394
_cell_length_c       8.56173
_cell_angle_alpha    114.53
_cell_angle_beta     103.335
_cell_angle_gamma    90.1009

_space_group_name_H-M_alt    "P 1"
_space_group_IT_number       1

loop_
  _space_group_symop_operation_xyz
  'x, y, z'

loop_
  _atom_site_type_symbol
  _atom_site_label
  _atom_site_symmetry_multiplicity
  _atom_site_fract_x
  _atom_site_fract_y
  _atom_site_fract_z
  _atom_site_occupancy
  Zn  Zn1       1.0  0.50052  0.50536  0.00048  1.0000
  Ni  Ni1       1.0  0.00021  0.00699  0.00000  1.0000
  H   H1        1.0  0.19484  0.59341  0.21184  1.0000
  H   H2        1.0  0.80604  0.39182  0.78758  1.0000
  H   H3        1.0  0.48662  0.89262  0.76887  1.0000
  H   H4        1.0  0.51146  0.12536  0.23091  1.0000
  H   H5        1.0  0.78787  0.87073  0.67625  1.0000
  H   H6        1.0  0.21063  0.18390  0.32461  1.0000
  H   H7        1.0  0.77578  0.70823  0.34980  1.0000
  H   H8        1.0  0.22465  0.34776  0.65228  1.0000
  H   H9        1.0  0.15154  0.77640  0.66714  1.0000
  H   H10       1.0  0.84895  0.12335  0.33154  1.0000
  H   H11       1.0  0.04102  0.63496  0.45196  1.0000
  H   H12       1.0  0.96066  0.20074  0.54689  1.0000
  C   C1        1.0  0.32341  0.65600  0.31915  1.0000
  C   C2        1.0  0.67698  0.34322  0.68057  1.0000
  C   C3        1.0  0.31493  0.74259  0.49748  1.0000
  C   C4        1.0  0.68459  0.25250  0.50195  1.0000
  C   C5        1.0  0.48608  0.82305  0.62876  1.0000
  C   C6        1.0  0.51275  0.19577  0.37118  1.0000
  C   C7        1.0  0.65320  0.81014  0.57677  1.0000
  C   C8        1.0  0.34574  0.22820  0.42389  1.0000
  C   C9        1.0  0.64904  0.71943  0.39720  1.0000
  C   C10       1.0  0.35091  0.31675  0.60364  1.0000
  C   C11       1.0  0.83266  0.84538  0.03589  1.0000
  C   C12       1.0  0.16606  0.80784  0.96447  1.0000
  C   C13       1.0  0.16759  0.16733  0.96237  1.0000
  C   C14       1.0  0.83463  0.20690  0.03735  1.0000
  N   N1        1.0  0.48583  0.64440  0.27155  1.0000
  N   N2        1.0  0.51469  0.37324  0.72884  1.0000
  N   N3        1.0  0.71928  0.74814  0.05744  1.0000
  N   N4        1.0  0.27846  0.68814  0.94309  1.0000
  N   N5        1.0  0.28108  0.26519  0.94162  1.0000
  N   N6        1.0  0.72190  0.32611  0.05793  1.0000
  N   N7        1.0  0.14309  0.75203  0.53986  1.0000
  N   N8        1.0  0.85635  0.22602  0.45887  1.0000
