data_image0
_chemical_formula_structural       Cu2H28C28N2O14
_chemical_formula_sum              "Cu2 H28 C28 N2 O14"
_cell_length_a       7.32362
_cell_length_b       8.36975
_cell_length_c       11.8322
_cell_angle_alpha    106.158
_cell_angle_beta     90.6321
_cell_angle_gamma    96.8201

_space_group_name_H-M_alt    "P 1"
_space_group_IT_number       1

loop_
  _space_group_symop_operation_xyz
  'x, y, z'

loop_
  _atom_site_type_symbol
  _atom_site_label
  _atom_site_symmetry_multiplicity
  _atom_site_fract_x
  _atom_site_fract_y
  _atom_site_fract_z
  _atom_site_occupancy
  Cu  Cu1       1.0  0.65692  0.71086  0.54232  1.0000
  Cu  Cu2       1.0  0.34308  0.28914  0.45768  1.0000
  H   H1        1.0  0.39128  0.56391  0.08195  1.0000
  H   H2        1.0  0.60873  0.43609  0.91805  1.0000
  H   H3        1.0  0.34454  0.72166  0.94102  1.0000
  H   H4        1.0  0.65546  0.27834  0.05898  1.0000
  H   H5        1.0  0.71295  0.14077  0.15793  1.0000
  H   H6        1.0  0.28704  0.85923  0.84208  1.0000
  H   H7        1.0  0.84008  0.44294  0.59037  1.0000
  H   H8        1.0  0.15993  0.55707  0.40964  1.0000
  H   H9        1.0  0.97437  0.37438  0.76126  1.0000
  H   H10       1.0  0.02563  0.62562  0.23874  1.0000
  H   H11       1.0  0.85168  0.85568  0.97745  1.0000
  H   H12       1.0  0.14832  0.14432  0.02255  1.0000
  H   H13       1.0  0.72140  0.90349  0.79466  1.0000
  H   H14       1.0  0.27861  0.09652  0.20534  1.0000
  H   H15       1.0  0.98372  0.68028  0.07498  1.0000
  H   H16       1.0  0.01626  0.31972  0.92502  1.0000
  H   H17       1.0  0.39955  0.58242  0.64794  1.0000
  H   H18       1.0  0.60045  0.41758  0.35206  1.0000
  H   H19       1.0  0.90939  0.78727  0.41950  1.0000
  H   H20       1.0  0.09061  0.21273  0.58050  1.0000
  H   H21       1.0  0.61413  0.08311  0.60971  1.0000
  H   H22       1.0  0.38587  0.91689  0.39028  1.0000
  H   H23       1.0  0.32423  0.73392  0.60669  1.0000
  H   H24       1.0  0.67578  0.26608  0.39331  1.0000
  H   H25       1.0  0.00275  0.78011  0.54143  1.0000
  H   H26       1.0  0.99725  0.21988  0.45857  1.0000
  H   H27       1.0  0.81783  0.04892  0.63855  1.0000
  H   H28       1.0  0.18218  0.95108  0.36145  1.0000
  C   C1        1.0  0.58851  0.66490  0.28815  1.0000
  C   C2        1.0  0.41149  0.33510  0.71185  1.0000
  C   C3        1.0  0.57860  0.75858  0.19773  1.0000
  C   C4        1.0  0.42141  0.24141  0.80226  1.0000
  C   C5        1.0  0.46151  0.69069  0.09781  1.0000
  C   C6        1.0  0.53849  0.30931  0.90219  1.0000
  C   C7        1.0  0.43236  0.78313  0.01955  1.0000
  C   C8        1.0  0.56763  0.21687  0.98045  1.0000
  C   C9        1.0  0.51660  0.94939  0.04040  1.0000
  C   C10       1.0  0.48340  0.05061  0.95960  1.0000
  C   C11       1.0  0.63892  0.01484  0.13956  1.0000
  C   C12       1.0  0.36107  0.98516  0.86044  1.0000
  C   C13       1.0  0.67337  0.92074  0.21590  1.0000
  C   C14       1.0  0.32662  0.07926  0.78409  1.0000
  C   C15       1.0  0.82376  0.98968  0.30967  1.0000
  C   C16       1.0  0.17623  0.01032  0.69034  1.0000
  C   C17       1.0  0.84352  0.52968  0.67810  1.0000
  C   C18       1.0  0.15650  0.47033  0.32191  1.0000
  C   C19       1.0  0.91801  0.49265  0.77466  1.0000
  C   C20       1.0  0.08198  0.50735  0.22534  1.0000
  C   C21       1.0  0.91933  0.60783  0.88716  1.0000
  C   C22       1.0  0.08067  0.39217  0.11285  1.0000
  C   C23       1.0  0.85240  0.76066  0.89317  1.0000
  C   C24       1.0  0.14760  0.23935  0.10683  1.0000
  C   C25       1.0  0.77856  0.78845  0.79271  1.0000
  C   C26       1.0  0.22144  0.21155  0.20729  1.0000
  C   C27       1.0  0.97905  0.57472  0.99552  1.0000
  C   C28       1.0  0.02094  0.42529  0.00448  1.0000
  N   N1        1.0  0.77137  0.67343  0.68691  1.0000
  N   N2        1.0  0.22864  0.32658  0.31309  1.0000
  O   O1        1.0  0.56082  0.75238  0.39409  1.0000
  O   O2        1.0  0.43918  0.24762  0.60591  1.0000
  O   O3        1.0  0.61599  0.51372  0.25637  1.0000
  O   O4        1.0  0.38402  0.48627  0.74362  1.0000
  O   O5        1.0  0.93923  0.89208  0.32073  1.0000
  O   O6        1.0  0.06077  0.10793  0.67926  1.0000
  O   O7        1.0  0.83415  0.14371  0.36803  1.0000
  O   O8        1.0  0.16585  0.85629  0.63197  1.0000
  O   O9        1.0  0.40561  0.64230  0.58331  1.0000
  O   O10       1.0  0.59439  0.35770  0.41669  1.0000
  O   O11       1.0  0.68631  0.00260  0.63017  1.0000
  O   O12       1.0  0.31369  0.99740  0.36983  1.0000
  O   O13       1.0  0.90377  0.72005  0.47739  1.0000
  O   O14       1.0  0.09624  0.27995  0.52261  1.0000
