data_image0
_chemical_formula_structural       Cd4H28C32N4O20
_chemical_formula_sum              "Cd4 H28 C32 N4 O20"
_cell_length_a       8.35233
_cell_length_b       8.41701
_cell_length_c       12.5475
_cell_angle_alpha    89.9999
_cell_angle_beta     90.0002
_cell_angle_gamma    107.334

_space_group_name_H-M_alt    "P 1"
_space_group_IT_number       1

loop_
  _space_group_symop_operation_xyz
  'x, y, z'

loop_
  _atom_site_type_symbol
  _atom_site_label
  _atom_site_symmetry_multiplicity
  _atom_site_fract_x
  _atom_site_fract_y
  _atom_site_fract_z
  _atom_site_occupancy
  Cd  Cd1       1.0  0.51502  0.79603  0.42937  1.0000
  Cd  Cd2       1.0  0.48497  0.70397  0.92937  1.0000
  Cd  Cd3       1.0  0.48497  0.20397  0.57063  1.0000
  Cd  Cd4       1.0  0.51502  0.29603  0.07063  1.0000
  H   H1        1.0  0.03314  0.62004  0.43345  1.0000
  H   H2        1.0  0.96686  0.87996  0.93345  1.0000
  H   H3        1.0  0.96686  0.37996  0.56655  1.0000
  H   H4        1.0  0.03314  0.12005  0.06655  1.0000
  H   H5        1.0  0.07991  0.61375  0.04008  1.0000
  H   H6        1.0  0.92009  0.88625  0.54007  1.0000
  H   H7        1.0  0.92009  0.38625  0.95993  1.0000
  H   H8        1.0  0.07990  0.11375  0.45992  1.0000
  H   H9        1.0  0.84842  0.69896  0.12334  1.0000
  H   H10       1.0  0.15158  0.80105  0.62333  1.0000
  H   H11       1.0  0.15158  0.30105  0.87667  1.0000
  H   H12       1.0  0.84842  0.19896  0.37666  1.0000
  H   H13       1.0  0.25143  0.47814  0.43414  1.0000
  H   H14       1.0  0.74857  0.02185  0.93414  1.0000
  H   H15       1.0  0.74857  0.52185  0.56586  1.0000
  H   H16       1.0  0.25143  0.97815  0.06586  1.0000
  H   H17       1.0  0.36889  0.48051  0.32404  1.0000
  H   H18       1.0  0.63111  0.01949  0.82404  1.0000
  H   H19       1.0  0.63111  0.51949  0.67597  1.0000
  H   H20       1.0  0.36889  0.98051  0.17597  1.0000
  H   H21       1.0  0.38472  0.71463  0.65713  1.0000
  H   H22       1.0  0.61528  0.78537  0.15713  1.0000
  H   H23       1.0  0.61528  0.28537  0.34287  1.0000
  H   H24       1.0  0.38472  0.21463  0.84287  1.0000
  H   H25       1.0  0.36580  0.55664  0.58547  1.0000
  H   H26       1.0  0.63420  0.94336  0.08547  1.0000
  H   H27       1.0  0.63420  0.44337  0.41453  1.0000
  H   H28       1.0  0.36580  0.05663  0.91453  1.0000
  C   C1        1.0  0.92502  0.66169  0.28404  1.0000
  C   C2        1.0  0.07498  0.83831  0.78404  1.0000
  C   C3        1.0  0.07498  0.33831  0.71596  1.0000
  C   C4        1.0  0.92503  0.16169  0.21596  1.0000
  C   C5        1.0  0.04369  0.61854  0.34684  1.0000
  C   C6        1.0  0.95630  0.88145  0.84684  1.0000
  C   C7        1.0  0.95631  0.38146  0.65316  1.0000
  C   C8        1.0  0.04370  0.11855  0.15316  1.0000
  C   C9        1.0  0.17817  0.57637  0.30041  1.0000
  C   C10       1.0  0.82183  0.92363  0.80040  1.0000
  C   C11       1.0  0.82183  0.42363  0.69960  1.0000
  C   C12       1.0  0.17817  0.07637  0.19959  1.0000
  C   C13       1.0  0.18819  0.57082  0.18771  1.0000
  C   C14       1.0  0.81181  0.92918  0.68771  1.0000
  C   C15       1.0  0.81181  0.42918  0.81229  1.0000
  C   C16       1.0  0.18819  0.07082  0.31229  1.0000
  C   C17       1.0  0.06932  0.61793  0.12626  1.0000
  C   C18       1.0  0.93067  0.88207  0.62626  1.0000
  C   C19       1.0  0.93068  0.38207  0.87374  1.0000
  C   C20       1.0  0.06932  0.11793  0.37374  1.0000
  C   C21       1.0  0.94050  0.66573  0.17273  1.0000
  C   C22       1.0  0.05950  0.83427  0.67273  1.0000
  C   C23       1.0  0.05950  0.33427  0.82727  1.0000
  C   C24       1.0  0.94050  0.16573  0.32727  1.0000
  C   C25       1.0  0.78008  0.70051  0.33506  1.0000
  C   C26       1.0  0.21992  0.79949  0.83506  1.0000
  C   C27       1.0  0.21992  0.29949  0.66494  1.0000
  C   C28       1.0  0.78008  0.20051  0.16494  1.0000
  C   C29       1.0  0.31078  0.50375  0.13102  1.0000
  C   C30       1.0  0.68921  0.99625  0.63102  1.0000
  C   C31       1.0  0.68922  0.49625  0.86898  1.0000
  C   C32       1.0  0.31078  0.00375  0.36898  1.0000
  N   N1        1.0  0.30062  0.54304  0.36663  1.0000
  N   N2        1.0  0.69938  0.95695  0.86663  1.0000
  N   N3        1.0  0.69938  0.45696  0.63337  1.0000
  N   N4        1.0  0.30062  0.04304  0.13337  1.0000
  O   O1        1.0  0.73851  0.65041  0.43098  1.0000
  O   O2        1.0  0.26149  0.84959  0.93098  1.0000
  O   O3        1.0  0.26149  0.34959  0.56902  1.0000
  O   O4        1.0  0.73851  0.15041  0.06901  1.0000
  O   O5        1.0  0.69762  0.78062  0.28389  1.0000
  O   O6        1.0  0.30238  0.71938  0.78389  1.0000
  O   O7        1.0  0.30238  0.21938  0.71611  1.0000
  O   O8        1.0  0.69762  0.28062  0.21611  1.0000
  O   O9        1.0  0.30459  0.49035  0.02935  1.0000
  O   O10       1.0  0.69541  0.00966  0.52935  1.0000
  O   O11       1.0  0.69541  0.50965  0.97065  1.0000
  O   O12       1.0  0.30459  0.99034  0.47065  1.0000
  O   O13       1.0  0.41583  0.45312  0.18586  1.0000
  O   O14       1.0  0.58417  0.04688  0.68586  1.0000
  O   O15       1.0  0.58417  0.54688  0.81414  1.0000
  O   O16       1.0  0.41583  0.95311  0.31414  1.0000
  O   O17       1.0  0.43259  0.67502  0.59355  1.0000
  O   O18       1.0  0.56741  0.82498  0.09355  1.0000
  O   O19       1.0  0.56741  0.32499  0.40645  1.0000
  O   O20       1.0  0.43259  0.17501  0.90645  1.0000
