data_image0
_chemical_formula_structural       Cd4H28C32N4O20
_chemical_formula_sum              "Cd4 H28 C32 N4 O20"
_cell_length_a       8.33585
_cell_length_b       8.47279
_cell_length_c       12.5448
_cell_angle_alpha    90.0001
_cell_angle_beta     89.9996
_cell_angle_gamma    107.561

_space_group_name_H-M_alt    "P 1"
_space_group_IT_number       1

loop_
  _space_group_symop_operation_xyz
  'x, y, z'

loop_
  _atom_site_type_symbol
  _atom_site_label
  _atom_site_symmetry_multiplicity
  _atom_site_fract_x
  _atom_site_fract_y
  _atom_site_fract_z
  _atom_site_occupancy
  Cd  Cd1       1.0  0.98553  0.70570  0.42835  1.0000
  Cd  Cd2       1.0  0.01446  0.79430  0.92834  1.0000
  Cd  Cd3       1.0  0.01446  0.29430  0.57166  1.0000
  Cd  Cd4       1.0  0.98553  0.20570  0.07166  1.0000
  H   H1        1.0  0.46984  0.88154  0.43138  1.0000
  H   H2        1.0  0.53015  0.61847  0.93138  1.0000
  H   H3        1.0  0.53016  0.11846  0.56862  1.0000
  H   H4        1.0  0.46985  0.38154  0.06862  1.0000
  H   H5        1.0  0.41802  0.88363  0.03809  1.0000
  H   H6        1.0  0.58199  0.61637  0.53809  1.0000
  H   H7        1.0  0.58199  0.11637  0.96191  1.0000
  H   H8        1.0  0.41800  0.38363  0.46191  1.0000
  H   H9        1.0  0.65187  0.80188  0.12078  1.0000
  H   H10       1.0  0.34814  0.69812  0.62078  1.0000
  H   H11       1.0  0.34814  0.19811  0.87922  1.0000
  H   H12       1.0  0.65185  0.30189  0.37922  1.0000
  H   H13       1.0  0.11319  0.78676  0.65532  1.0000
  H   H14       1.0  0.88681  0.71323  0.15532  1.0000
  H   H15       1.0  0.88681  0.21324  0.34468  1.0000
  H   H16       1.0  0.11320  0.28676  0.84468  1.0000
  H   H17       1.0  0.13215  0.94490  0.58477  1.0000
  H   H18       1.0  0.86785  0.55510  0.08478  1.0000
  H   H19       1.0  0.86785  0.05510  0.41523  1.0000
  H   H20       1.0  0.13215  0.44490  0.91523  1.0000
  H   H21       1.0  0.13336  0.02066  0.32332  1.0000
  H   H22       1.0  0.86663  0.47934  0.82332  1.0000
  H   H23       1.0  0.86664  0.97934  0.67668  1.0000
  H   H24       1.0  0.13336  0.52066  0.17668  1.0000
  H   H25       1.0  0.25190  0.02242  0.43286  1.0000
  H   H26       1.0  0.74809  0.47759  0.93287  1.0000
  H   H27       1.0  0.74809  0.97758  0.56713  1.0000
  H   H28       1.0  0.25191  0.52242  0.06713  1.0000
  C   C1        1.0  0.72105  0.80022  0.33287  1.0000
  C   C2        1.0  0.27895  0.69978  0.83287  1.0000
  C   C3        1.0  0.27895  0.19978  0.66713  1.0000
  C   C4        1.0  0.72105  0.30022  0.16714  1.0000
  C   C5        1.0  0.57606  0.83874  0.28172  1.0000
  C   C6        1.0  0.42394  0.66126  0.78172  1.0000
  C   C7        1.0  0.42395  0.16127  0.71827  1.0000
  C   C8        1.0  0.57606  0.33874  0.21828  1.0000
  C   C9        1.0  0.45808  0.88239  0.34479  1.0000
  C   C10       1.0  0.54192  0.61761  0.84479  1.0000
  C   C11       1.0  0.54193  0.11762  0.65521  1.0000
  C   C12       1.0  0.45808  0.38239  0.15521  1.0000
  C   C13       1.0  0.43024  0.88136  0.12426  1.0000
  C   C14       1.0  0.56977  0.61864  0.62426  1.0000
  C   C15       1.0  0.56977  0.11864  0.87574  1.0000
  C   C16       1.0  0.43023  0.38136  0.37574  1.0000
  C   C17       1.0  0.55951  0.83406  0.17044  1.0000
  C   C18       1.0  0.44049  0.66594  0.67044  1.0000
  C   C19       1.0  0.44049  0.16594  0.82956  1.0000
  C   C20       1.0  0.55951  0.33406  0.32956  1.0000
  C   C21       1.0  0.32359  0.92480  0.29872  1.0000
  C   C22       1.0  0.67641  0.57520  0.79872  1.0000
  C   C23       1.0  0.67642  0.07521  0.70128  1.0000
  C   C24       1.0  0.32358  0.42479  0.20128  1.0000
  C   C25       1.0  0.31244  0.92954  0.18603  1.0000
  C   C26       1.0  0.68756  0.57045  0.68603  1.0000
  C   C27       1.0  0.68757  0.07046  0.81397  1.0000
  C   C28       1.0  0.31243  0.42954  0.31397  1.0000
  C   C29       1.0  0.19028  0.99721  0.12968  1.0000
  C   C30       1.0  0.80972  0.50279  0.62969  1.0000
  C   C31       1.0  0.80973  0.00279  0.87032  1.0000
  C   C32       1.0  0.19027  0.49721  0.37032  1.0000
  N   N1        1.0  0.20174  0.95824  0.36539  1.0000
  N   N2        1.0  0.79826  0.54175  0.86540  1.0000
  N   N3        1.0  0.79826  0.04176  0.63460  1.0000
  N   N4        1.0  0.20174  0.45825  0.13461  1.0000
  O   O1        1.0  0.76195  0.84917  0.42909  1.0000
  O   O2        1.0  0.23804  0.65084  0.92909  1.0000
  O   O3        1.0  0.23805  0.15084  0.57091  1.0000
  O   O4        1.0  0.76195  0.34916  0.07091  1.0000
  O   O5        1.0  0.80397  0.72121  0.28167  1.0000
  O   O6        1.0  0.19603  0.77879  0.78167  1.0000
  O   O7        1.0  0.19604  0.27879  0.71833  1.0000
  O   O8        1.0  0.80397  0.22121  0.21833  1.0000
  O   O9        1.0  0.19425  0.00827  0.02792  1.0000
  O   O10       1.0  0.80575  0.49172  0.52793  1.0000
  O   O11       1.0  0.80576  0.99172  0.97207  1.0000
  O   O12       1.0  0.19424  0.50828  0.47207  1.0000
  O   O13       1.0  0.08831  0.05106  0.18514  1.0000
  O   O14       1.0  0.91169  0.44894  0.68515  1.0000
  O   O15       1.0  0.91169  0.94894  0.81485  1.0000
  O   O16       1.0  0.08830  0.55106  0.31485  1.0000
  O   O17       1.0  0.06443  0.82707  0.59247  1.0000
  O   O18       1.0  0.93557  0.67293  0.09248  1.0000
  O   O19       1.0  0.93557  0.17293  0.40752  1.0000
  O   O20       1.0  0.06443  0.32706  0.90753  1.0000
