data_image0
_chemical_formula_structural       Mn2H32C38N4O16
_chemical_formula_sum              "Mn2 H32 C38 N4 O16"
_cell_length_a       7.49625
_cell_length_b       9.63941
_cell_length_c       14.5499
_cell_angle_alpha    103.459
_cell_angle_beta     97.4901
_cell_angle_gamma    112.617

_space_group_name_H-M_alt    "P 1"
_space_group_IT_number       1

loop_
  _space_group_symop_operation_xyz
  'x, y, z'

loop_
  _atom_site_type_symbol
  _atom_site_label
  _atom_site_symmetry_multiplicity
  _atom_site_fract_x
  _atom_site_fract_y
  _atom_site_fract_z
  _atom_site_occupancy
  Mn  Mn1       1.0  0.75661  0.27601  0.79953  1.0000
  Mn  Mn2       1.0  0.45710  0.47707  0.20070  1.0000
  H   H1        1.0  0.25678  0.96612  0.82216  1.0000
  H   H2        1.0  0.93534  0.14515  0.17783  1.0000
  H   H3        1.0  0.81839  0.80230  0.55188  1.0000
  H   H4        1.0  0.76763  0.25183  0.44812  1.0000
  H   H5        1.0  0.05221  0.56147  0.73983  1.0000
  H   H6        1.0  0.81195  0.82248  0.25979  1.0000
  H   H7        1.0  0.88883  0.07971  0.56155  1.0000
  H   H8        1.0  0.82763  0.51935  0.43841  1.0000
  H   H9        1.0  0.01639  0.21892  0.98043  1.0000
  H   H10       1.0  0.53670  0.23845  0.01983  1.0000
  H   H11       1.0  0.51947  0.15458  0.58397  1.0000
  H   H12       1.0  0.43651  0.57139  0.41622  1.0000
  H   H13       1.0  0.28477  0.89710  0.45496  1.0000
  H   H14       1.0  0.33033  0.44291  0.54508  1.0000
  H   H15       1.0  0.53601  0.67844  0.78734  1.0000
  H   H16       1.0  0.24746  0.89126  0.21242  1.0000
  H   H17       1.0  0.00431  0.99656  0.04278  1.0000
  H   H18       1.0  0.46145  0.95355  0.95738  1.0000
  H   H19       1.0  0.75378  0.71952  0.94476  1.0000
  H   H20       1.0  0.30799  0.77456  0.05513  1.0000
  H   H21       1.0  0.50861  0.40421  0.70918  1.0000
  H   H22       1.0  0.29975  0.69606  0.29119  1.0000
  H   H23       1.0  0.71022  0.45184  0.67280  1.0000
  H   H24       1.0  0.53784  0.78014  0.32753  1.0000
  H   H25       1.0  0.21791  0.64556  0.49408  1.0000
  H   H26       1.0  0.22352  0.15211  0.50571  1.0000
  H   H27       1.0  0.39403  0.65696  0.65551  1.0000
  H   H28       1.0  0.23792  0.00185  0.34430  1.0000
  H   H29       1.0  0.98022  0.46626  0.98514  1.0000
  H   H30       1.0  0.49458  0.48073  0.01488  1.0000
  H   H31       1.0  0.12206  0.43268  0.91699  1.0000
  H   H32       1.0  0.70463  0.51567  0.08313  1.0000
  C   C1        1.0  0.66520  0.92789  0.79929  1.0000
  C   C2        1.0  0.36541  0.12883  0.20061  1.0000
  C   C3        1.0  0.14386  0.34643  0.70728  1.0000
  C   C4        1.0  0.93641  0.64016  0.29264  1.0000
  C   C5        1.0  0.10818  0.17958  0.69987  1.0000
  C   C6        1.0  0.90845  0.48082  0.30012  1.0000
  C   C7        1.0  0.17618  0.99177  0.76558  1.0000
  C   C8        1.0  0.91132  0.22738  0.23441  1.0000
  C   C9        1.0  0.92910  0.89991  0.61330  1.0000
  C   C10       1.0  0.81664  0.28786  0.38666  1.0000
  C   C11       1.0  0.21649  0.14827  0.77229  1.0000
  C   C12       1.0  0.94460  0.37715  0.22775  1.0000
  C   C13       1.0  0.02960  0.86728  0.68773  1.0000
  C   C14       1.0  0.84271  0.18076  0.31222  1.0000
  C   C15       1.0  0.96866  0.05534  0.61931  1.0000
  C   C16       1.0  0.84980  0.43721  0.38067  1.0000
  C   C17       1.0  0.91195  0.09784  0.93888  1.0000
  C   C18       1.0  0.47320  0.15896  0.06126  1.0000
  C   C19       1.0  0.97614  0.69999  0.68266  1.0000
  C   C20       1.0  0.79399  0.01845  0.31721  1.0000
  C   C21       1.0  0.48757  0.04073  0.59565  1.0000
  C   C22       1.0  0.39252  0.44578  0.40448  1.0000
  C   C23       1.0  0.35742  0.89898  0.52521  1.0000
  C   C24       1.0  0.33270  0.37448  0.47482  1.0000
  C   C25       1.0  0.55025  0.91193  0.70365  1.0000
  C   C26       1.0  0.34642  0.20875  0.29625  1.0000
  C   C27       1.0  0.64545  0.79692  0.83077  1.0000
  C   C28       1.0  0.31369  0.96624  0.16908  1.0000
  C   C29       1.0  0.90449  0.97314  0.97382  1.0000
  C   C30       1.0  0.43042  0.99916  0.02629  1.0000
  C   C31       1.0  0.76693  0.82000  0.91924  1.0000
  C   C32       1.0  0.34699  0.90066  0.08074  1.0000
  C   C33       1.0  0.37132  0.27963  0.85811  1.0000
  C   C34       1.0  0.01325  0.42248  0.14189  1.0000
  C   C35       1.0  0.32223  0.75872  0.54678  1.0000
  C   C36       1.0  0.27551  0.21254  0.45310  1.0000
  C   C37       1.0  0.42054  0.76475  0.63657  1.0000
  C   C38       1.0  0.28372  0.12868  0.36324  1.0000
  N   N1        1.0  0.79461  0.07688  0.85405  1.0000
  N   N2        1.0  0.44059  0.22303  0.14601  1.0000
  N   N3        1.0  0.58079  0.04780  0.68300  1.0000
  N   N4        1.0  0.39803  0.36538  0.31705  1.0000
  O   O1        1.0  0.30930  0.44046  0.69970  1.0000
  O   O2        1.0  0.10943  0.74176  0.30019  1.0000
  O   O3        1.0  0.83485  0.58842  0.61820  1.0000
  O   O4        1.0  0.71760  0.97157  0.38177  1.0000
  O   O5        1.0  0.99876  0.38222  0.71929  1.0000
  O   O6        1.0  0.77926  0.66389  0.28061  1.0000
  O   O7        1.0  0.08816  0.68049  0.75226  1.0000
  O   O8        1.0  0.83552  0.92901  0.24734  1.0000
  O   O9        1.0  0.63547  0.39136  0.71299  1.0000
  O   O10       1.0  0.42273  0.67928  0.28759  1.0000
  O   O11       1.0  0.32690  0.38361  0.90714  1.0000
  O   O12       1.0  0.91932  0.47682  0.09266  1.0000
  O   O13       1.0  0.00093  0.45140  0.91730  1.0000
  O   O14       1.0  0.58300  0.53385  0.08278  1.0000
  O   O15       1.0  0.54081  0.27721  0.87907  1.0000
  O   O16       1.0  0.16195  0.39929  0.12099  1.0000
