data_image0
_chemical_formula_structural       Sr2Co2P4H16C4O16
_chemical_formula_sum              "Sr2 Co2 P4 H16 C4 O16"
_cell_length_a       7.92838
_cell_length_b       7.99588
_cell_length_c       8.59063
_cell_angle_alpha    84.722
_cell_angle_beta     62.5229
_cell_angle_gamma    78.4963

_space_group_name_H-M_alt    "P 1"
_space_group_IT_number       1

loop_
  _space_group_symop_operation_xyz
  'x, y, z'

loop_
  _atom_site_type_symbol
  _atom_site_label
  _atom_site_symmetry_multiplicity
  _atom_site_fract_x
  _atom_site_fract_y
  _atom_site_fract_z
  _atom_site_occupancy
  Sr  Sr1       1.0  0.03610  0.24995  0.92787  1.0000
  Sr  Sr2       1.0  0.96390  0.75005  0.07213  1.0000
  Co  Co1       1.0  0.49902  0.74987  0.00185  1.0000
  Co  Co2       1.0  0.50098  0.25014  0.99815  1.0000
  P   P1        1.0  0.39108  0.56121  0.77821  1.0000
  P   P2        1.0  0.83058  0.93894  0.77818  1.0000
  P   P3        1.0  0.60892  0.43879  0.22179  1.0000
  P   P4        1.0  0.16942  0.06106  0.22182  1.0000
  H   H1        1.0  0.40112  0.68977  0.51335  1.0000
  H   H2        1.0  0.08512  0.81011  0.51336  1.0000
  H   H3        1.0  0.59888  0.31023  0.48665  1.0000
  H   H4        1.0  0.91488  0.18989  0.48664  1.0000
  H   H5        1.0  0.63639  0.61842  0.49323  1.0000
  H   H6        1.0  0.87011  0.88192  0.49314  1.0000
  H   H7        1.0  0.36361  0.38158  0.50677  1.0000
  H   H8        1.0  0.12989  0.11808  0.50686  1.0000
  H   H9        1.0  0.78968  0.42073  0.73197  1.0000
  H   H10       1.0  0.47839  0.07933  0.73209  1.0000
  H   H11       1.0  0.21032  0.57927  0.26803  1.0000
  H   H12       1.0  0.52161  0.92066  0.26791  1.0000
  H   H13       1.0  0.90429  0.54703  0.74788  1.0000
  H   H14       1.0  0.34799  0.95297  0.74782  1.0000
  H   H15       1.0  0.09571  0.45297  0.25212  1.0000
  H   H16       1.0  0.65201  0.04703  0.25218  1.0000
  C   C1        1.0  0.49334  0.58289  0.54273  1.0000
  C   C2        1.0  0.96373  0.91718  0.54269  1.0000
  C   C3        1.0  0.50666  0.41710  0.45727  1.0000
  C   C4        1.0  0.03627  0.08283  0.45732  1.0000
  O   O1        1.0  0.36446  0.73842  0.85985  1.0000
  O   O2        1.0  0.77536  0.76177  0.85985  1.0000
  O   O3        1.0  0.63554  0.26158  0.14015  1.0000
  O   O4        1.0  0.22463  0.23824  0.14015  1.0000
  O   O5        1.0  0.53843  0.42903  0.81699  1.0000
  O   O6        1.0  0.64465  0.07138  0.81686  1.0000
  O   O7        1.0  0.46157  0.57097  0.18301  1.0000
  O   O8        1.0  0.35535  0.92862  0.18315  1.0000
  O   O9        1.0  0.19312  0.51067  0.84754  1.0000
  O   O10       1.0  0.95936  0.98931  0.84748  1.0000
  O   O11       1.0  0.80688  0.48933  0.15246  1.0000
  O   O12       1.0  0.04064  0.01069  0.15252  1.0000
  O   O13       1.0  0.91847  0.42636  0.72079  1.0000
  O   O14       1.0  0.36084  0.07365  0.72082  1.0000
  O   O15       1.0  0.08153  0.57364  0.27921  1.0000
  O   O16       1.0  0.63916  0.92634  0.27918  1.0000
