data_image0
_chemical_formula_structural       Cd3H12C16N2O16
_chemical_formula_sum              "Cd3 H12 C16 N2 O16"
_cell_length_a       6.5758
_cell_length_b       8.35896
_cell_length_c       10.0764
_cell_angle_alpha    109.141
_cell_angle_beta     98.6654
_cell_angle_gamma    98.676

_space_group_name_H-M_alt    "P 1"
_space_group_IT_number       1

loop_
  _space_group_symop_operation_xyz
  'x, y, z'

loop_
  _atom_site_type_symbol
  _atom_site_label
  _atom_site_symmetry_multiplicity
  _atom_site_fract_x
  _atom_site_fract_y
  _atom_site_fract_z
  _atom_site_occupancy
  Cd  Cd1       1.0  0.92796  0.93690  0.67674  1.0000
  Cd  Cd2       1.0  0.07204  0.06311  0.32326  1.0000
  Cd  Cd3       1.0  0.50000  0.50000  1.00000  1.0000
  H   H1        1.0  0.71116  0.32901  0.21532  1.0000
  H   H2        1.0  0.28884  0.67100  0.78469  1.0000
  H   H3        1.0  0.62279  0.27985  0.61757  1.0000
  H   H4        1.0  0.37721  0.72015  0.38243  1.0000
  H   H5        1.0  0.03111  0.26336  0.87499  1.0000
  H   H6        1.0  0.96889  0.73664  0.12501  1.0000
  H   H7        1.0  0.02469  0.16811  0.98804  1.0000
  H   H8        1.0  0.97532  0.83189  0.01196  1.0000
  H   H9        1.0  0.46246  0.14743  0.88910  1.0000
  H   H10       1.0  0.53754  0.85257  0.11090  1.0000
  H   H11       1.0  0.70964  0.22096  0.93623  1.0000
  H   H12       1.0  0.29036  0.77904  0.06377  1.0000
  C   C1        1.0  0.79080  0.56336  0.40448  1.0000
  C   C2        1.0  0.20920  0.43664  0.59552  1.0000
  C   C3        1.0  0.71927  0.38514  0.33056  1.0000
  C   C4        1.0  0.28073  0.61486  0.66944  1.0000
  C   C5        1.0  0.65836  0.28068  0.40725  1.0000
  C   C6        1.0  0.34164  0.71932  0.59275  1.0000
  C   C7        1.0  0.66934  0.35732  0.55439  1.0000
  C   C8        1.0  0.33066  0.64268  0.44561  1.0000
  C   C9        1.0  0.74858  0.53564  0.62072  1.0000
  C   C10       1.0  0.25142  0.46436  0.37928  1.0000
  C   C11       1.0  0.77275  0.62281  0.78130  1.0000
  C   C12       1.0  0.22725  0.37719  0.21870  1.0000
  C   C13       1.0  0.86114  0.68194  0.32732  1.0000
  C   C14       1.0  0.13886  0.31806  0.67268  1.0000
  C   C15       1.0  0.58477  0.08805  0.33192  1.0000
  C   C16       1.0  0.41523  0.91195  0.66809  1.0000
  N   N1        1.0  0.80841  0.63575  0.54703  1.0000
  N   N2        1.0  0.19159  0.36425  0.45297  1.0000
  O   O1        1.0  0.96328  0.83405  0.40522  1.0000
  O   O2        1.0  0.03672  0.16596  0.59478  1.0000
  O   O3        1.0  0.82004  0.61853  0.19067  1.0000
  O   O4        1.0  0.17996  0.38147  0.80933  1.0000
  O   O5        1.0  0.70252  0.01267  0.25227  1.0000
  O   O6        1.0  0.29748  0.98733  0.74773  1.0000
  O   O7        1.0  0.41554  0.01230  0.34889  1.0000
  O   O8        1.0  0.58446  0.98771  0.65111  1.0000
  O   O9        1.0  0.71083  0.52470  0.84599  1.0000
  O   O10       1.0  0.28918  0.47530  0.15401  1.0000
  O   O11       1.0  0.85551  0.78409  0.83797  1.0000
  O   O12       1.0  0.14450  0.21591  0.16203  1.0000
  O   O13       1.0  0.94326  0.16875  0.89582  1.0000
  O   O14       1.0  0.05674  0.83125  0.10418  1.0000
  O   O15       1.0  0.57429  0.23758  0.96771  1.0000
  O   O16       1.0  0.42571  0.76242  0.03229  1.0000
