data_image0
_chemical_formula_structural       Cd2H12C16I4N8Cl4
_chemical_formula_sum              "Cd2 H12 C16 I4 N8 Cl4"
_cell_length_a       3.95941
_cell_length_b       10.2088
_cell_length_c       16.7086
_cell_angle_alpha    89.9987
_cell_angle_beta     89.6143
_cell_angle_gamma    89.9991

_space_group_name_H-M_alt    "P 1"
_space_group_IT_number       1

loop_
  _space_group_symop_operation_xyz
  'x, y, z'

loop_
  _atom_site_type_symbol
  _atom_site_label
  _atom_site_symmetry_multiplicity
  _atom_site_fract_x
  _atom_site_fract_y
  _atom_site_fract_z
  _atom_site_occupancy
  Cd  Cd1       1.0  0.50000  0.50000  0.50000  1.0000
  Cd  Cd2       1.0  1.00000  0.00000  0.00000  1.0000
  H   H1        1.0  0.25767  0.20353  0.52726  1.0000
  H   H2        1.0  0.24236  0.70353  0.97274  1.0000
  H   H3        1.0  0.74234  0.79647  0.47274  1.0000
  H   H4        1.0  0.75764  0.29647  0.02726  1.0000
  H   H5        1.0  0.83483  0.25634  0.78160  1.0000
  H   H6        1.0  0.66515  0.75636  0.71841  1.0000
  H   H7        1.0  0.16518  0.74365  0.21840  1.0000
  H   H8        1.0  0.33484  0.24364  0.28159  1.0000
  H   H9        1.0  0.76800  0.44690  0.68608  1.0000
  H   H10       1.0  0.73201  0.94692  0.81394  1.0000
  H   H11       1.0  0.23201  0.55310  0.31393  1.0000
  H   H12       1.0  0.26799  0.05309  0.18606  1.0000
  C   C1        1.0  0.38863  0.21450  0.58406  1.0000
  C   C2        1.0  0.11139  0.71450  0.91595  1.0000
  C   C3        1.0  0.61138  0.78550  0.41594  1.0000
  C   C4        1.0  0.88861  0.28550  0.08405  1.0000
  C   C5        1.0  0.43158  0.11039  0.63765  1.0000
  C   C6        1.0  0.06841  0.61039  0.86236  1.0000
  C   C7        1.0  0.56842  0.88961  0.36235  1.0000
  C   C8        1.0  0.93158  0.38961  0.13764  1.0000
  C   C9        1.0  0.70605  0.24440  0.72450  1.0000
  C   C10       1.0  0.79394  0.74442  0.77551  1.0000
  C   C11       1.0  0.29396  0.75559  0.27549  1.0000
  C   C12       1.0  0.20605  0.25558  0.22449  1.0000
  C   C13       1.0  0.66941  0.34980  0.67201  1.0000
  C   C14       1.0  0.83059  0.84982  0.82801  1.0000
  C   C15       1.0  0.33059  0.65019  0.32800  1.0000
  C   C16       1.0  0.16941  0.15019  0.17199  1.0000
  I   I1        1.0  0.24681  0.92260  0.60802  1.0000
  I   I2        1.0  0.25318  0.42260  0.89198  1.0000
  I   I3        1.0  0.75319  0.07740  0.39197  1.0000
  I   I4        1.0  0.74682  0.57741  0.10801  1.0000
  N   N1        1.0  0.51167  0.33342  0.60165  1.0000
  N   N2        1.0  0.98835  0.83342  0.89836  1.0000
  N   N3        1.0  0.48833  0.66658  0.39835  1.0000
  N   N4        1.0  0.01165  0.16658  0.10164  1.0000
  N   N5        1.0  0.58971  0.12432  0.70705  1.0000
  N   N6        1.0  0.91026  0.62434  0.79296  1.0000
  N   N7        1.0  0.41029  0.87568  0.29294  1.0000
  N   N8        1.0  0.08972  0.37567  0.20705  1.0000
  Cl  Cl1       1.0  0.99369  0.62515  0.57488  1.0000
  Cl  Cl2       1.0  0.50630  0.12516  0.92512  1.0000
  Cl  Cl3       1.0  0.00630  0.37484  0.42512  1.0000
  Cl  Cl4       1.0  0.49370  0.87485  0.07488  1.0000
