data_image0
_chemical_formula_structural       Cd2H12C16Br8N8
_chemical_formula_sum              "Cd2 H12 C16 Br8 N8"
_cell_length_a       3.91456
_cell_length_b       10.4547
_cell_length_c       16.6086
_cell_angle_alpha    89.9995
_cell_angle_beta     90.0005
_cell_angle_gamma    92.1127

_space_group_name_H-M_alt    "P 1"
_space_group_IT_number       1

loop_
  _space_group_symop_operation_xyz
  'x, y, z'

loop_
  _atom_site_type_symbol
  _atom_site_label
  _atom_site_symmetry_multiplicity
  _atom_site_fract_x
  _atom_site_fract_y
  _atom_site_fract_z
  _atom_site_occupancy
  Cd  Cd1       1.0  0.50001  1.00000  0.50000  1.0000
  Cd  Cd2       1.0  0.50001  0.50001  0.00000  1.0000
  H   H1        1.0  0.72015  0.30574  0.51931  1.0000
  H   H2        1.0  0.27986  0.19426  0.01931  1.0000
  H   H3        1.0  0.27987  0.69426  0.48069  1.0000
  H   H4        1.0  0.72013  0.80576  0.98069  1.0000
  H   H5        1.0  0.26894  0.23727  0.78996  1.0000
  H   H6        1.0  0.73108  0.26273  0.28997  1.0000
  H   H7        1.0  0.73106  0.76273  0.21004  1.0000
  H   H8        1.0  0.26894  0.73725  0.71003  1.0000
  H   H9        1.0  0.31905  0.05263  0.69176  1.0000
  H   H10       1.0  0.68095  0.44736  0.19176  1.0000
  H   H11       1.0  0.68095  0.94737  0.30825  1.0000
  H   H12       1.0  0.31909  0.55263  0.80825  1.0000
  C   C1        1.0  0.62073  0.29035  0.57998  1.0000
  C   C2        1.0  0.37928  0.20966  0.07998  1.0000
  C   C3        1.0  0.37928  0.70965  0.42002  1.0000
  C   C4        1.0  0.62070  0.79035  0.92001  1.0000
  C   C5        1.0  0.60033  0.38922  0.63641  1.0000
  C   C6        1.0  0.39972  0.11078  0.13641  1.0000
  C   C7        1.0  0.39970  0.61078  0.36359  1.0000
  C   C8        1.0  0.60021  0.88922  0.86358  1.0000
  C   C9        1.0  0.37204  0.25194  0.72949  1.0000
  C   C10       1.0  0.62797  0.24806  0.22950  1.0000
  C   C11       1.0  0.62796  0.74806  0.27051  1.0000
  C   C12       1.0  0.37202  0.75193  0.77050  1.0000
  C   C13       1.0  0.39540  0.15061  0.67535  1.0000
  C   C14       1.0  0.60460  0.34939  0.17535  1.0000
  C   C15       1.0  0.60459  0.84939  0.32465  1.0000
  C   C16       1.0  0.39543  0.65061  0.82465  1.0000
  Br  Br1       1.0  0.98368  0.87182  0.58556  1.0000
  Br  Br2       1.0  0.01634  0.62819  0.08556  1.0000
  Br  Br3       1.0  0.01633  0.12818  0.41444  1.0000
  Br  Br4       1.0  0.98367  0.37182  0.91445  1.0000
  Br  Br5       1.0  0.75893  0.55808  0.60782  1.0000
  Br  Br6       1.0  0.24109  0.94192  0.10783  1.0000
  Br  Br7       1.0  0.24109  0.44192  0.39218  1.0000
  Br  Br8       1.0  0.75878  0.05809  0.89216  1.0000
  N   N1        1.0  0.51598  0.17136  0.60050  1.0000
  N   N2        1.0  0.48403  0.32864  0.10050  1.0000
  N   N3        1.0  0.48402  0.82864  0.39950  1.0000
  N   N4        1.0  0.51599  0.67136  0.89950  1.0000
  N   N5        1.0  0.47384  0.37188  0.70967  1.0000
  N   N6        1.0  0.52619  0.12812  0.20968  1.0000
  N   N7        1.0  0.52619  0.62812  0.29032  1.0000
  N   N8        1.0  0.47377  0.87188  0.79032  1.0000
