data_image0
_chemical_formula_structural       Cd2H12C16I8N8
_chemical_formula_sum              "Cd2 H12 C16 I8 N8"
_cell_length_a       4.19017
_cell_length_b       10.8055
_cell_length_c       17.1863
_cell_angle_alpha    89.9999
_cell_angle_beta     89.9999
_cell_angle_gamma    90.127

_space_group_name_H-M_alt    "P 1"
_space_group_IT_number       1

loop_
  _space_group_symop_operation_xyz
  'x, y, z'

loop_
  _atom_site_type_symbol
  _atom_site_label
  _atom_site_symmetry_multiplicity
  _atom_site_fract_x
  _atom_site_fract_y
  _atom_site_fract_z
  _atom_site_occupancy
  Cd  Cd1       1.0  1.00000  0.50000  0.50000  1.0000
  Cd  Cd2       1.0  1.00000  1.00000  0.00000  1.0000
  H   H1        1.0  0.17457  0.20496  0.47745  1.0000
  H   H2        1.0  0.82543  0.29504  0.97745  1.0000
  H   H3        1.0  0.82542  0.79504  0.52255  1.0000
  H   H4        1.0  0.17458  0.70496  0.02255  1.0000
  H   H5        1.0  0.76957  0.27926  0.21611  1.0000
  H   H6        1.0  0.23043  0.22074  0.71611  1.0000
  H   H7        1.0  0.23044  0.72074  0.78389  1.0000
  H   H8        1.0  0.76957  0.77926  0.28389  1.0000
  H   H9        1.0  0.82692  0.45418  0.31315  1.0000
  H   H10       1.0  0.17308  0.04582  0.81315  1.0000
  H   H11       1.0  0.17308  0.54582  0.68685  1.0000
  H   H12       1.0  0.82692  0.95418  0.18685  1.0000
  C   C1        1.0  0.08939  0.22176  0.41839  1.0000
  C   C2        1.0  0.91062  0.27824  0.91839  1.0000
  C   C3        1.0  0.91061  0.77824  0.58161  1.0000
  C   C4        1.0  0.08938  0.72176  0.08161  1.0000
  C   C5        1.0  0.07509  0.12826  0.36190  1.0000
  C   C6        1.0  0.92492  0.37174  0.86190  1.0000
  C   C7        1.0  0.92491  0.87174  0.63810  1.0000
  C   C8        1.0  0.07509  0.62826  0.13810  1.0000
  C   C9        1.0  0.86644  0.26311  0.27416  1.0000
  C   C10       1.0  0.13356  0.23689  0.77416  1.0000
  C   C11       1.0  0.13356  0.73690  0.72584  1.0000
  C   C12       1.0  0.86644  0.76311  0.22584  1.0000
  C   C13       1.0  0.89208  0.35929  0.32796  1.0000
  C   C14       1.0  0.10792  0.14071  0.82796  1.0000
  C   C15       1.0  0.10792  0.64071  0.67204  1.0000
  C   C16       1.0  0.89207  0.85929  0.17204  1.0000
  I   I1        1.0  0.48916  0.63408  0.41137  1.0000
  I   I2        1.0  0.51084  0.86592  0.91137  1.0000
  I   I3        1.0  0.51084  0.36592  0.58864  1.0000
  I   I4        1.0  0.48916  0.13407  0.08864  1.0000
  I   I5        1.0  0.24770  0.94902  0.38908  1.0000
  I   I6        1.0  0.75231  0.55098  0.88908  1.0000
  I   I7        1.0  0.75230  0.05098  0.61092  1.0000
  I   I8        1.0  0.24769  0.44902  0.11092  1.0000
  N   N1        1.0  0.99797  0.33700  0.40041  1.0000
  N   N2        1.0  0.00203  0.16300  0.90041  1.0000
  N   N3        1.0  0.00202  0.66300  0.59959  1.0000
  N   N4        1.0  0.99797  0.83701  0.09959  1.0000
  N   N5        1.0  0.95871  0.14731  0.29104  1.0000
  N   N6        1.0  0.04129  0.35269  0.79104  1.0000
  N   N7        1.0  0.04129  0.85269  0.70896  1.0000
  N   N8        1.0  0.95871  0.64731  0.20896  1.0000
