data_image0
_chemical_formula_structural       Cd2H12C16I4Br4N8
_chemical_formula_sum              "Cd2 H12 C16 I4 Br4 N8"
_cell_length_a       4.03648
_cell_length_b       10.4766
_cell_length_c       16.8917
_cell_angle_alpha    90.0001
_cell_angle_beta     89.9997
_cell_angle_gamma    90.5434

_space_group_name_H-M_alt    "P 1"
_space_group_IT_number       1

loop_
  _space_group_symop_operation_xyz
  'x, y, z'

loop_
  _atom_site_type_symbol
  _atom_site_label
  _atom_site_symmetry_multiplicity
  _atom_site_fract_x
  _atom_site_fract_y
  _atom_site_fract_z
  _atom_site_occupancy
  Cd  Cd1       1.0  0.50000  0.50000  0.50000  1.0000
  Cd  Cd2       1.0  0.50001  0.00000  0.00000  1.0000
  H   H1        1.0  0.70976  0.20285  0.47644  1.0000
  H   H2        1.0  0.29023  0.29715  0.97644  1.0000
  H   H3        1.0  0.29023  0.79715  0.52356  1.0000
  H   H4        1.0  0.70977  0.70285  0.02356  1.0000
  H   H5        1.0  0.21942  0.26765  0.21637  1.0000
  H   H6        1.0  0.78058  0.23235  0.71637  1.0000
  H   H7        1.0  0.78058  0.73235  0.78363  1.0000
  H   H8        1.0  0.21942  0.76765  0.28363  1.0000
  H   H9        1.0  0.28294  0.45058  0.31365  1.0000
  H   H10       1.0  0.71706  0.04942  0.81365  1.0000
  H   H11       1.0  0.71705  0.54942  0.68635  1.0000
  H   H12       1.0  0.28295  0.95058  0.18636  1.0000
  C   C1        1.0  0.60185  0.21718  0.41797  1.0000
  C   C2        1.0  0.39815  0.28282  0.91796  1.0000
  C   C3        1.0  0.39815  0.78282  0.58204  1.0000
  C   C4        1.0  0.60185  0.71718  0.08204  1.0000
  C   C5        1.0  0.57389  0.11869  0.36220  1.0000
  C   C6        1.0  0.42610  0.38131  0.86220  1.0000
  C   C7        1.0  0.42610  0.88131  0.63780  1.0000
  C   C8        1.0  0.57390  0.61869  0.13780  1.0000
  C   C9        1.0  0.33164  0.25354  0.27443  1.0000
  C   C10       1.0  0.66836  0.24646  0.77443  1.0000
  C   C11       1.0  0.66835  0.74646  0.72556  1.0000
  C   C12       1.0  0.33164  0.75354  0.22556  1.0000
  C   C13       1.0  0.36232  0.35415  0.32816  1.0000
  C   C14       1.0  0.63769  0.14585  0.82816  1.0000
  C   C15       1.0  0.63767  0.64584  0.67184  1.0000
  C   C16       1.0  0.36233  0.85416  0.17184  1.0000
  I   I1        1.0  0.75214  0.93503  0.39056  1.0000
  I   I2        1.0  0.24785  0.56497  0.89055  1.0000
  I   I3        1.0  0.24786  0.06497  0.60945  1.0000
  I   I4        1.0  0.75215  0.43503  0.10945  1.0000
  Br  Br1       1.0  0.99796  0.62799  0.41767  1.0000
  Br  Br2       1.0  0.00205  0.87201  0.91767  1.0000
  Br  Br3       1.0  0.00204  0.37201  0.58232  1.0000
  Br  Br4       1.0  0.99796  0.12799  0.08233  1.0000
  N   N1        1.0  0.49388  0.33436  0.40021  1.0000
  N   N2        1.0  0.50611  0.16565  0.90022  1.0000
  N   N3        1.0  0.50610  0.66564  0.59978  1.0000
  N   N4        1.0  0.49390  0.83436  0.09979  1.0000
  N   N5        1.0  0.43636  0.13549  0.29157  1.0000
  N   N6        1.0  0.56363  0.36451  0.79156  1.0000
  N   N7        1.0  0.56363  0.86451  0.70844  1.0000
  N   N8        1.0  0.43637  0.63549  0.20844  1.0000
