data_image0
_chemical_formula_structural       Zn6P4H16C12O20
_chemical_formula_sum              "Zn6 P4 H16 C12 O20"
_cell_length_a       8.27672
_cell_length_b       8.53924
_cell_length_c       9.33265
_cell_angle_alpha    90.0002
_cell_angle_beta     89.9999
_cell_angle_gamma    105.918

_space_group_name_H-M_alt    "P 1"
_space_group_IT_number       1

loop_
  _space_group_symop_operation_xyz
  'x, y, z'

loop_
  _atom_site_type_symbol
  _atom_site_label
  _atom_site_symmetry_multiplicity
  _atom_site_fract_x
  _atom_site_fract_y
  _atom_site_fract_z
  _atom_site_occupancy
  Zn  Zn1       1.0  0.41876  0.88071  0.11956  1.0000
  Zn  Zn2       1.0  0.58125  0.61929  0.61956  1.0000
  Zn  Zn3       1.0  0.58125  0.11930  0.88044  1.0000
  Zn  Zn4       1.0  0.41875  0.38070  0.38044  1.0000
  Zn  Zn5       1.0  0.50000  0.50000  0.00000  1.0000
  Zn  Zn6       1.0  0.50000  0.00000  0.50000  1.0000
  P   P1        1.0  0.63588  0.74174  0.29020  1.0000
  P   P2        1.0  0.36412  0.75826  0.79020  1.0000
  P   P3        1.0  0.36412  0.25826  0.70981  1.0000
  P   P4        1.0  0.63588  0.24174  0.20980  1.0000
  H   H1        1.0  0.87663  0.85731  0.15003  1.0000
  H   H2        1.0  0.12336  0.64269  0.65003  1.0000
  H   H3        1.0  0.12337  0.14269  0.84997  1.0000
  H   H4        1.0  0.87663  0.35730  0.34998  1.0000
  H   H5        1.0  0.85511  0.65015  0.18586  1.0000
  H   H6        1.0  0.14490  0.84985  0.68587  1.0000
  H   H7        1.0  0.14490  0.34985  0.81413  1.0000
  H   H8        1.0  0.85510  0.15014  0.31414  1.0000
  H   H9        1.0  0.95574  0.92626  0.41079  1.0000
  H   H10       1.0  0.04427  0.57375  0.91080  1.0000
  H   H11       1.0  0.04426  0.07374  0.58920  1.0000
  H   H12       1.0  0.95573  0.42625  0.08921  1.0000
  H   H13       1.0  0.94638  0.72289  0.44542  1.0000
  H   H14       1.0  0.05363  0.77712  0.94542  1.0000
  H   H15       1.0  0.05363  0.27712  0.55457  1.0000
  H   H16       1.0  0.94637  0.22288  0.05458  1.0000
  C   C1        1.0  0.84951  0.76505  0.23522  1.0000
  C   C2        1.0  0.15049  0.73495  0.73522  1.0000
  C   C3        1.0  0.15049  0.23495  0.76478  1.0000
  C   C4        1.0  0.84950  0.26504  0.26479  1.0000
  C   C5        1.0  0.97177  0.81499  0.35983  1.0000
  C   C6        1.0  0.02824  0.68501  0.85983  1.0000
  C   C7        1.0  0.02823  0.18501  0.64017  1.0000
  C   C8        1.0  0.97177  0.31499  0.14017  1.0000
  C   C9        1.0  0.15657  0.85037  0.32115  1.0000
  C   C10       1.0  0.84343  0.64963  0.82117  1.0000
  C   C11       1.0  0.84343  0.14963  0.67884  1.0000
  C   C12       1.0  0.15657  0.35038  0.17884  1.0000
  O   O1        1.0  0.58688  0.59903  0.40135  1.0000
  O   O2        1.0  0.41312  0.90097  0.90134  1.0000
  O   O3        1.0  0.41312  0.40097  0.59865  1.0000
  O   O4        1.0  0.58688  0.09903  0.09865  1.0000
  O   O5        1.0  0.51788  0.69850  0.15660  1.0000
  O   O6        1.0  0.48213  0.80150  0.65660  1.0000
  O   O7        1.0  0.48212  0.30150  0.84340  1.0000
  O   O8        1.0  0.51787  0.19850  0.34340  1.0000
  O   O9        1.0  0.62475  0.90127  0.35617  1.0000
  O   O10       1.0  0.37525  0.59873  0.85617  1.0000
  O   O11       1.0  0.37526  0.09873  0.64384  1.0000
  O   O12       1.0  0.62475  0.40127  0.14383  1.0000
  O   O13       1.0  0.19350  0.85989  0.18627  1.0000
  O   O14       1.0  0.80650  0.64012  0.68627  1.0000
  O   O15       1.0  0.80650  0.14012  0.81372  1.0000
  O   O16       1.0  0.19349  0.35990  0.31374  1.0000
  O   O17       1.0  0.26009  0.86849  0.42223  1.0000
  O   O18       1.0  0.73992  0.63151  0.92223  1.0000
  O   O19       1.0  0.73991  0.13152  0.57776  1.0000
  O   O20       1.0  0.26008  0.36848  0.07777  1.0000
