data_image0
_chemical_formula_structural       Co2H12C16N20
_chemical_formula_sum              "Co2 H12 C16 N20"
_cell_length_a       6.34991
_cell_length_b       8.32006
_cell_length_c       10.3569
_cell_angle_alpha    92.4535
_cell_angle_beta     90
_cell_angle_gamma    112.415

_space_group_name_H-M_alt    "P 1"
_space_group_IT_number       1

loop_
  _space_group_symop_operation_xyz
  'x, y, z'

loop_
  _atom_site_type_symbol
  _atom_site_label
  _atom_site_symmetry_multiplicity
  _atom_site_fract_x
  _atom_site_fract_y
  _atom_site_fract_z
  _atom_site_occupancy
  Co  Co1       1.0  0.50000  0.50000  1.00000  1.0000
  Co  Co2       1.0  1.00000  0.50000  0.50000  1.0000
  H   H1        1.0  0.82042  0.12055  0.57014  1.0000
  H   H2        1.0  0.69951  0.87923  0.92979  1.0000
  H   H3        1.0  0.17960  0.87945  0.42986  1.0000
  H   H4        1.0  0.30049  0.12077  0.07022  1.0000
  H   H5        1.0  0.47624  0.12344  0.92527  1.0000
  H   H6        1.0  0.35280  0.87638  0.57453  1.0000
  H   H7        1.0  0.52376  0.87655  0.07473  1.0000
  H   H8        1.0  0.64721  0.12362  0.42546  1.0000
  H   H9        1.0  0.84414  0.58509  0.74874  1.0000
  H   H10       1.0  0.25902  0.41472  0.75122  1.0000
  H   H11       1.0  0.15584  0.41490  0.25126  1.0000
  H   H12       1.0  0.74099  0.58528  0.24879  1.0000
  C   C1        1.0  0.77317  0.18841  0.65010  1.0000
  C   C2        1.0  0.58451  0.81139  0.84983  1.0000
  C   C3        1.0  0.22683  0.81159  0.34990  1.0000
  C   C4        1.0  0.41549  0.18861  0.15017  1.0000
  C   C5        1.0  0.64590  0.09556  0.75097  1.0000
  C   C6        1.0  0.55024  0.90426  0.74892  1.0000
  C   C7        1.0  0.35410  0.90444  0.24903  1.0000
  C   C8        1.0  0.44976  0.09574  0.25108  1.0000
  C   C9        1.0  0.58930  0.19042  0.84948  1.0000
  C   C10       1.0  0.39880  0.80940  0.65040  1.0000
  C   C11       1.0  0.41070  0.80957  0.15052  1.0000
  C   C12       1.0  0.60121  0.19060  0.34960  1.0000
  C   C13       1.0  0.78552  0.44420  0.75058  1.0000
  C   C14       1.0  0.34119  0.55562  0.74939  1.0000
  C   C15       1.0  0.21447  0.55579  0.24943  1.0000
  C   C16       1.0  0.65881  0.44437  0.25061  1.0000
  N   N1        1.0  0.83953  0.36310  0.64705  1.0000
  N   N2        1.0  0.47627  0.63674  0.85290  1.0000
  N   N3        1.0  0.16046  0.63690  0.35296  1.0000
  N   N4        1.0  0.52374  0.36326  0.14710  1.0000
  N   N5        1.0  0.66230  0.36425  0.85027  1.0000
  N   N6        1.0  0.29791  0.63554  0.64963  1.0000
  N   N7        1.0  0.33769  0.63574  0.14973  1.0000
  N   N8        1.0  0.70209  0.36446  0.35037  1.0000
  N   N9        1.0  0.95697  0.75607  0.98805  1.0000
  N   N10       1.0  0.20097  0.24391  0.51195  1.0000
  N   N11       1.0  0.04305  0.24395  0.01194  1.0000
  N   N12       1.0  0.79903  0.75611  0.48805  1.0000
  N   N13       1.0  0.79626  0.67378  0.05097  1.0000
  N   N14       1.0  0.12260  0.32622  0.44901  1.0000
  N   N15       1.0  0.20374  0.32621  0.94903  1.0000
  N   N16       1.0  0.87740  0.67378  0.55099  1.0000
  N   N17       1.0  0.11971  0.84431  0.93388  1.0000
  N   N18       1.0  0.27546  0.15563  0.56617  1.0000
  N   N19       1.0  0.88028  0.15570  0.06612  1.0000
  N   N20       1.0  0.72455  0.84438  0.43384  1.0000
