data_image0
_chemical_formula_structural       Ni3H18C24N30
_chemical_formula_sum              "Ni3 H18 C24 N30"
_cell_length_a       7.81399
_cell_length_b       10.3351
_cell_length_c       10.8601
_cell_angle_alpha    107.307
_cell_angle_beta     89.7469
_cell_angle_gamma    101.392

_space_group_name_H-M_alt    "P 1"
_space_group_IT_number       1

loop_
  _space_group_symop_operation_xyz
  'x, y, z'

loop_
  _atom_site_type_symbol
  _atom_site_label
  _atom_site_symmetry_multiplicity
  _atom_site_fract_x
  _atom_site_fract_y
  _atom_site_fract_z
  _atom_site_occupancy
  Ni  Ni1       1.0  0.50000  0.00000  0.50000  1.0000
  Ni  Ni2       1.0  0.87716  0.99668  0.87271  1.0000
  Ni  Ni3       1.0  0.12283  0.00332  0.12729  1.0000
  H   H1        1.0  0.87781  0.70672  0.69398  1.0000
  H   H2        1.0  0.12219  0.29328  0.30602  1.0000
  H   H3        1.0  0.53579  0.44036  0.87398  1.0000
  H   H4        1.0  0.46420  0.55964  0.12602  1.0000
  H   H5        1.0  0.49661  0.29011  0.66745  1.0000
  H   H6        1.0  0.50339  0.70990  0.33254  1.0000
  H   H7        1.0  0.82542  0.28251  0.99997  1.0000
  H   H8        1.0  0.17459  0.71748  0.00004  1.0000
  H   H9        1.0  0.58678  0.86700  0.00038  1.0000
  H   H10       1.0  0.41322  0.13300  0.99962  1.0000
  H   H11       1.0  0.84921  0.11216  0.42014  1.0000
  H   H12       1.0  0.15079  0.88784  0.57986  1.0000
  H   H13       1.0  0.18523  0.12396  0.74790  1.0000
  H   H14       1.0  0.81477  0.87603  0.25211  1.0000
  H   H15       1.0  0.01514  0.52221  0.64046  1.0000
  H   H16       1.0  0.98486  0.47779  0.35953  1.0000
  H   H17       1.0  0.22778  0.54903  0.86199  1.0000
  H   H18       1.0  0.77220  0.45097  0.13800  1.0000
  C   C1        1.0  0.78600  0.68608  0.76530  1.0000
  C   C2        1.0  0.21400  0.31392  0.23470  1.0000
  C   C3        1.0  0.74912  0.42834  0.66926  1.0000
  C   C4        1.0  0.25088  0.57166  0.33074  1.0000
  C   C5        1.0  0.02657  0.43912  0.95575  1.0000
  C   C6        1.0  0.97343  0.56089  0.04426  1.0000
  C   C7        1.0  0.59309  0.54068  0.86155  1.0000
  C   C8        1.0  0.40691  0.45932  0.13845  1.0000
  C   C9        1.0  0.70897  0.55136  0.76433  1.0000
  C   C10       1.0  0.29103  0.44864  0.23567  1.0000
  C   C11       1.0  0.62769  0.30221  0.63126  1.0000
  C   C12       1.0  0.37232  0.69779  0.36874  1.0000
  C   C13       1.0  0.94214  0.30408  0.94848  1.0000
  C   C14       1.0  0.05786  0.69592  0.05153  1.0000
  C   C15       1.0  0.62481  0.77558  0.93628  1.0000
  C   C16       1.0  0.37519  0.22443  0.06372  1.0000
  C   C17       1.0  0.82251  0.20330  0.49262  1.0000
  C   C18       1.0  0.17749  0.79669  0.50738  1.0000
  C   C19       1.0  0.13672  0.21440  0.80389  1.0000
  C   C20       1.0  0.86329  0.78560  0.19611  1.0000
  C   C21       1.0  0.91092  0.42937  0.61233  1.0000
  C   C22       1.0  0.08908  0.57064  0.38767  1.0000
  C   C23       1.0  0.16155  0.44910  0.87092  1.0000
  C   C24       1.0  0.83845  0.55090  0.12907  1.0000
  N   N1        1.0  0.45270  0.03306  0.69385  1.0000
  N   N2        1.0  0.54729  0.96694  0.30615  1.0000
  N   N3        1.0  0.90848  0.93794  0.67961  1.0000
  N   N4        1.0  0.09152  0.06206  0.32039  1.0000
  N   N5        1.0  0.87862  0.04715  0.08259  1.0000
  N   N6        1.0  0.12138  0.95284  0.91742  1.0000
  N   N7        1.0  0.80206  0.92135  0.59544  1.0000
  N   N8        1.0  0.19794  0.07865  0.40456  1.0000
  N   N9        1.0  0.99863  0.19298  0.87546  1.0000
  N   N10       1.0  0.00137  0.80702  0.12454  1.0000
  N   N11       1.0  0.74807  0.79724  0.85361  1.0000
  N   N12       1.0  0.25193  0.20276  0.14639  1.0000
  N   N13       1.0  0.66684  0.18971  0.54587  1.0000
  N   N14       1.0  0.33316  0.81029  0.45413  1.0000
  N   N15       1.0  0.82349  0.14504  0.14802  1.0000
  N   N16       1.0  0.17651  0.85496  0.85198  1.0000
  N   N17       1.0  0.94627  0.31882  0.52266  1.0000
  N   N18       1.0  0.05373  0.68118  0.47734  1.0000
  N   N19       1.0  0.21618  0.33817  0.79614  1.0000
  N   N20       1.0  0.78381  0.66183  0.20386  1.0000
  N   N21       1.0  0.70333  0.90110  0.50609  1.0000
  N   N22       1.0  0.29666  0.09890  0.49391  1.0000
  N   N23       1.0  0.54736  0.65152  0.94447  1.0000
  N   N24       1.0  0.45264  0.34848  0.05553  1.0000
  N   N25       1.0  0.76902  0.24000  0.21066  1.0000
  N   N26       1.0  0.23098  0.76000  0.78935  1.0000
  N   N27       1.0  0.55181  0.04172  0.77956  1.0000
  N   N28       1.0  0.44819  0.95828  0.22044  1.0000
  N   N29       1.0  0.64265  0.05400  0.87165  1.0000
  N   N30       1.0  0.35735  0.94600  0.12835  1.0000
