data_image0
_chemical_formula_structural       Li2PuH10C14N2O12
_chemical_formula_sum              "Li2 Pu1 H10 C14 N2 O12"
_cell_length_a       6.95645
_cell_length_b       8.15524
_cell_length_c       8.71421
_cell_angle_alpha    83.6364
_cell_angle_beta     68.4394
_cell_angle_gamma    71.2087

_space_group_name_H-M_alt    "P 1"
_space_group_IT_number       1

loop_
  _space_group_symop_operation_xyz
  'x, y, z'

loop_
  _atom_site_type_symbol
  _atom_site_label
  _atom_site_symmetry_multiplicity
  _atom_site_fract_x
  _atom_site_fract_y
  _atom_site_fract_z
  _atom_site_occupancy
  Li  Li1       1.0  0.78394  0.35338  0.92102  1.0000
  Li  Li2       1.0  0.21606  0.64662  0.07898  1.0000
  Pu  Pu1       1.0  0.99999  0.50000  0.50000  1.0000
  H   H1        1.0  0.98181  0.38805  0.12529  1.0000
  H   H2        1.0  0.01819  0.61194  0.87470  1.0000
  H   H3        1.0  0.93012  0.21206  0.14379  1.0000
  H   H4        1.0  0.06988  0.78792  0.85620  1.0000
  H   H5        1.0  0.32231  0.76819  0.55600  1.0000
  H   H6        1.0  0.67770  0.23180  0.44399  1.0000
  H   H7        1.0  0.60857  0.70761  0.27409  1.0000
  H   H8        1.0  0.39145  0.29241  0.72591  1.0000
  H   H9        1.0  0.64970  0.96050  0.07991  1.0000
  H   H10       1.0  0.35030  0.03951  0.92009  1.0000
  C   C1        1.0  0.04687  0.09708  0.67901  1.0000
  C   C2        1.0  0.95313  0.90291  0.32099  1.0000
  C   C3        1.0  0.37542  0.29599  0.14472  1.0000
  C   C4        1.0  0.62456  0.70402  0.85528  1.0000
  C   C5        1.0  0.21371  0.04236  0.51145  1.0000
  C   C6        1.0  0.78628  0.95764  0.48854  1.0000
  C   C7        1.0  0.34493  0.87211  0.46789  1.0000
  C   C8        1.0  0.65508  0.12789  0.53211  1.0000
  C   C9        1.0  0.50355  0.83906  0.31068  1.0000
  C   C10       1.0  0.49647  0.16095  0.68932  1.0000
  C   C11       1.0  0.52541  0.97693  0.20260  1.0000
  C   C12       1.0  0.47459  0.02308  0.79741  1.0000
  C   C13       1.0  0.38101  0.14161  0.25433  1.0000
  C   C14       1.0  0.61899  0.85840  0.74568  1.0000
  N   N1        1.0  0.22946  0.17420  0.40566  1.0000
  N   N2        1.0  0.77053  0.82580  0.59434  1.0000
  O   O1        1.0  0.23429  0.50535  0.53491  1.0000
  O   O2        1.0  0.76568  0.49465  0.46510  1.0000
  O   O3        1.0  0.90714  0.32643  0.08834  1.0000
  O   O4        1.0  0.09286  0.67356  0.91165  1.0000
  O   O5        1.0  0.95658  0.26292  0.69595  1.0000
  O   O6        1.0  0.04342  0.73708  0.30406  1.0000
  O   O7        1.0  0.00233  0.99196  0.79138  1.0000
  O   O8        1.0  0.99767  0.00803  0.20862  1.0000
  O   O9        1.0  0.20394  0.42814  0.20265  1.0000
  O   O10       1.0  0.79604  0.57187  0.79736  1.0000
  O   O11       1.0  0.52177  0.29293  0.00869  1.0000
  O   O12       1.0  0.47822  0.70708  0.99131  1.0000
