data_image0
_chemical_formula_structural       Li2NpH10C14N2O12
_chemical_formula_sum              "Li2 Np1 H10 C14 N2 O12"
_cell_length_a       7.02243
_cell_length_b       8.28688
_cell_length_c       8.494
_cell_angle_alpha    83.2923
_cell_angle_beta     70.9679
_cell_angle_gamma    70.19

_space_group_name_H-M_alt    "P 1"
_space_group_IT_number       1

loop_
  _space_group_symop_operation_xyz
  'x, y, z'

loop_
  _atom_site_type_symbol
  _atom_site_label
  _atom_site_symmetry_multiplicity
  _atom_site_fract_x
  _atom_site_fract_y
  _atom_site_fract_z
  _atom_site_occupancy
  Li  Li1       1.0  0.77714  0.34828  0.91094  1.0000
  Li  Li2       1.0  0.22286  0.65172  0.08906  1.0000
  Np  Np1       1.0  0.00002  0.50000  0.50000  1.0000
  H   H1        1.0  0.94787  0.21135  0.13134  1.0000
  H   H2        1.0  0.05209  0.78867  0.86869  1.0000
  H   H3        1.0  0.90490  0.40667  0.15082  1.0000
  H   H4        1.0  0.09500  0.59334  0.84925  1.0000
  H   H5        1.0  0.31488  0.76881  0.55399  1.0000
  H   H6        1.0  0.68513  0.23118  0.44600  1.0000
  H   H7        1.0  0.59419  0.70921  0.27456  1.0000
  H   H8        1.0  0.40583  0.29079  0.72544  1.0000
  H   H9        1.0  0.63943  0.96057  0.08295  1.0000
  H   H10       1.0  0.36058  0.03943  0.91705  1.0000
  C   C1        1.0  0.05178  0.09471  0.67534  1.0000
  C   C2        1.0  0.94826  0.90528  0.32466  1.0000
  C   C3        1.0  0.39300  0.29853  0.15233  1.0000
  C   C4        1.0  0.60701  0.70146  0.84765  1.0000
  C   C5        1.0  0.21619  0.04192  0.51016  1.0000
  C   C6        1.0  0.78383  0.95807  0.48983  1.0000
  C   C7        1.0  0.34014  0.87240  0.46682  1.0000
  C   C8        1.0  0.65986  0.12760  0.53317  1.0000
  C   C9        1.0  0.49385  0.83978  0.31099  1.0000
  C   C10       1.0  0.50616  0.16022  0.68900  1.0000
  C   C11       1.0  0.51847  0.97734  0.20425  1.0000
  C   C12       1.0  0.48154  0.02266  0.79574  1.0000
  C   C13       1.0  0.38451  0.14207  0.25675  1.0000
  C   C14       1.0  0.61550  0.85793  0.74323  1.0000
  N   N1        1.0  0.23689  0.17443  0.40654  1.0000
  N   N2        1.0  0.76311  0.82557  0.59345  1.0000
  O   O1        1.0  0.19631  0.51881  0.58342  1.0000
  O   O2        1.0  0.80370  0.48119  0.41658  1.0000
  O   O3        1.0  0.93210  0.32183  0.06915  1.0000
  O   O4        1.0  0.06780  0.67820  0.93091  1.0000
  O   O5        1.0  0.96255  0.25957  0.69004  1.0000
  O   O6        1.0  0.03751  0.74043  0.30996  1.0000
  O   O7        1.0  0.00741  0.99016  0.78707  1.0000
  O   O8        1.0  0.99261  0.00982  0.21292  1.0000
  O   O9        1.0  0.25310  0.43911  0.22136  1.0000
  O   O10       1.0  0.74692  0.56089  0.77862  1.0000
  O   O11       1.0  0.52495  0.28944  0.01125  1.0000
  O   O12       1.0  0.47505  0.71055  0.98872  1.0000
