data_image0
_chemical_formula_structural       Li2UH10C14N2O12
_chemical_formula_sum              "Li2 U1 H10 C14 N2 O12"
_cell_length_a       7.10987
_cell_length_b       8.31043
_cell_length_c       8.41665
_cell_angle_alpha    83.5679
_cell_angle_beta     71.4329
_cell_angle_gamma    69.9863

_space_group_name_H-M_alt    "P 1"
_space_group_IT_number       1

loop_
  _space_group_symop_operation_xyz
  'x, y, z'

loop_
  _atom_site_type_symbol
  _atom_site_label
  _atom_site_symmetry_multiplicity
  _atom_site_fract_x
  _atom_site_fract_y
  _atom_site_fract_z
  _atom_site_occupancy
  Li  Li1       1.0  0.77295  0.34972  0.91154  1.0000
  Li  Li2       1.0  0.22706  0.65028  0.08846  1.0000
  U   U1        1.0  0.00000  0.50000  0.50000  1.0000
  H   H1        1.0  0.89167  0.40405  0.15935  1.0000
  H   H2        1.0  0.10833  0.59596  0.84066  1.0000
  H   H3        1.0  0.94574  0.20970  0.12956  1.0000
  H   H4        1.0  0.05426  0.79031  0.87044  1.0000
  H   H5        1.0  0.31166  0.77043  0.55489  1.0000
  H   H6        1.0  0.68833  0.22958  0.44511  1.0000
  H   H7        1.0  0.59083  0.70949  0.27633  1.0000
  H   H8        1.0  0.40915  0.29051  0.72368  1.0000
  H   H9        1.0  0.63938  0.95981  0.08549  1.0000
  H   H10       1.0  0.36062  0.04018  0.91451  1.0000
  C   C1        1.0  0.05011  0.09581  0.67564  1.0000
  C   C2        1.0  0.94990  0.90419  0.32437  1.0000
  C   C3        1.0  0.39643  0.29777  0.15408  1.0000
  C   C4        1.0  0.60360  0.70223  0.84590  1.0000
  C   C5        1.0  0.21515  0.04285  0.51094  1.0000
  C   C6        1.0  0.78485  0.95714  0.48905  1.0000
  C   C7        1.0  0.33791  0.87335  0.46775  1.0000
  C   C8        1.0  0.66208  0.12665  0.53225  1.0000
  C   C9        1.0  0.49208  0.84018  0.31265  1.0000
  C   C10       1.0  0.50791  0.15981  0.68736  1.0000
  C   C11       1.0  0.51834  0.97712  0.20627  1.0000
  C   C12       1.0  0.48165  0.02288  0.79372  1.0000
  C   C13       1.0  0.38545  0.14194  0.25834  1.0000
  C   C14       1.0  0.61456  0.85806  0.74166  1.0000
  N   N1        1.0  0.23758  0.17493  0.40770  1.0000
  N   N2        1.0  0.76242  0.82506  0.59230  1.0000
  O   O1        1.0  0.18974  0.52084  0.59249  1.0000
  O   O2        1.0  0.81026  0.47916  0.40751  1.0000
  O   O3        1.0  0.92547  0.32226  0.07163  1.0000
  O   O4        1.0  0.07453  0.67776  0.92838  1.0000
  O   O5        1.0  0.96108  0.26057  0.69058  1.0000
  O   O6        1.0  0.03894  0.73944  0.30941  1.0000
  O   O7        1.0  0.00509  0.99135  0.78643  1.0000
  O   O8        1.0  0.99490  0.00866  0.21357  1.0000
  O   O9        1.0  0.26028  0.43917  0.22363  1.0000
  O   O10       1.0  0.73974  0.56083  0.77637  1.0000
  O   O11       1.0  0.52751  0.28729  0.01300  1.0000
  O   O12       1.0  0.47248  0.71271  0.98701  1.0000
