data_image0
_chemical_formula_structural       Cs4H32C24N4O8
_chemical_formula_sum              "Cs4 H32 C24 N4 O8"
_cell_length_a       7.50246
_cell_length_b       7.91786
_cell_length_c       13.7795
_cell_angle_alpha    89.9999
_cell_angle_beta     100.105
_cell_angle_gamma    90.0009

_space_group_name_H-M_alt    "P 1"
_space_group_IT_number       1

loop_
  _space_group_symop_operation_xyz
  'x, y, z'

loop_
  _atom_site_type_symbol
  _atom_site_label
  _atom_site_symmetry_multiplicity
  _atom_site_fract_x
  _atom_site_fract_y
  _atom_site_fract_z
  _atom_site_occupancy
  Cs  Cs1       1.0  0.78009  0.58730  0.57846  1.0000
  Cs  Cs2       1.0  0.71991  0.08730  0.42153  1.0000
  Cs  Cs3       1.0  0.21990  0.41270  0.42153  1.0000
  Cs  Cs4       1.0  0.28009  0.91270  0.57847  1.0000
  H   H1        1.0  0.57040  0.71227  0.78468  1.0000
  H   H2        1.0  0.92962  0.21227  0.21531  1.0000
  H   H3        1.0  0.42960  0.28773  0.21531  1.0000
  H   H4        1.0  0.07038  0.78773  0.78470  1.0000
  H   H5        1.0  0.49151  0.70654  0.95247  1.0000
  H   H6        1.0  0.00852  0.20653  0.04752  1.0000
  H   H7        1.0  0.50850  0.29346  0.04752  1.0000
  H   H8        1.0  0.99148  0.79347  0.95249  1.0000
  H   H9        1.0  0.22781  0.53048  0.98356  1.0000
  H   H10       1.0  0.27221  0.03046  0.01644  1.0000
  H   H11       1.0  0.77219  0.46953  0.01643  1.0000
  H   H12       1.0  0.72779  0.96955  0.98357  1.0000
  H   H13       1.0  0.89552  0.34807  0.78247  1.0000
  H   H14       1.0  0.60450  0.84807  0.21753  1.0000
  H   H15       1.0  0.10448  0.65193  0.21753  1.0000
  H   H16       1.0  0.39551  0.15193  0.78247  1.0000
  H   H17       1.0  0.95428  0.37582  0.91241  1.0000
  H   H18       1.0  0.54573  0.87582  0.08759  1.0000
  H   H19       1.0  0.04572  0.62418  0.08759  1.0000
  H   H20       1.0  0.45427  0.12418  0.91241  1.0000
  H   H21       1.0  0.04664  0.20644  0.85263  1.0000
  H   H22       1.0  0.45337  0.70643  0.14737  1.0000
  H   H23       1.0  0.95336  0.79356  0.14736  1.0000
  H   H24       1.0  0.54663  0.29357  0.85263  1.0000
  H   H25       1.0  0.02553  0.83805  0.38797  1.0000
  H   H26       1.0  0.47446  0.33805  0.61202  1.0000
  H   H27       1.0  0.97446  0.16194  0.61202  1.0000
  H   H28       1.0  0.52553  0.66194  0.38798  1.0000
  H   H29       1.0  0.90218  0.67374  0.35467  1.0000
  H   H30       1.0  0.59781  0.17373  0.64533  1.0000
  H   H31       1.0  0.09781  0.32626  0.64533  1.0000
  H   H32       1.0  0.40219  0.82626  0.35467  1.0000
  C   C1        1.0  0.35152  0.54254  0.72176  1.0000
  C   C2        1.0  0.14849  0.04254  0.27823  1.0000
  C   C3        1.0  0.64847  0.45745  0.27824  1.0000
  C   C4        1.0  0.85152  0.95746  0.72177  1.0000
  C   C5        1.0  0.45510  0.63888  0.79949  1.0000
  C   C6        1.0  0.04492  0.13888  0.20050  1.0000
  C   C7        1.0  0.54490  0.36112  0.20051  1.0000
  C   C8        1.0  0.95508  0.86112  0.79950  1.0000
  C   C9        1.0  0.41069  0.63522  0.89278  1.0000
  C   C10       1.0  0.08933  0.13520  0.10722  1.0000
  C   C11       1.0  0.58930  0.36479  0.10721  1.0000
  C   C12       1.0  0.91068  0.86480  0.89279  1.0000
  C   C13       1.0  0.26362  0.53802  0.91040  1.0000
  C   C14       1.0  0.23641  0.03802  0.08959  1.0000
  C   C15       1.0  0.73638  0.46198  0.08959  1.0000
  C   C16       1.0  0.76360  0.96199  0.91042  1.0000
  C   C17       1.0  0.16398  0.44896  0.83184  1.0000
  C   C18       1.0  0.33604  0.94895  0.16817  1.0000
  C   C19       1.0  0.83602  0.55105  0.16816  1.0000
  C   C20       1.0  0.66397  0.05106  0.83184  1.0000
  C   C21       1.0  0.00648  0.34027  0.84579  1.0000
  C   C22       1.0  0.49354  0.84027  0.15422  1.0000
  C   C23       1.0  0.99352  0.65972  0.15421  1.0000
  C   C24       1.0  0.50647  0.15973  0.84579  1.0000
  N   N1        1.0  0.20540  0.45225  0.74033  1.0000
  N   N2        1.0  0.29461  0.95225  0.25967  1.0000
  N   N3        1.0  0.79460  0.54774  0.25967  1.0000
  N   N4        1.0  0.70539  0.04775  0.74034  1.0000
  O   O1        1.0  0.39164  0.53845  0.63382  1.0000
  O   O2        1.0  0.10837  0.03846  0.36618  1.0000
  O   O3        1.0  0.60835  0.46154  0.36618  1.0000
  O   O4        1.0  0.89164  0.96154  0.63382  1.0000
  O   O5        1.0  0.96973  0.73730  0.41384  1.0000
  O   O6        1.0  0.53027  0.23730  0.58615  1.0000
  O   O7        1.0  0.03027  0.26270  0.58616  1.0000
  O   O8        1.0  0.46973  0.76270  0.41384  1.0000
