data_image0
_chemical_formula_structural       Na4H40C24N4O12
_chemical_formula_sum              "Na4 H40 C24 N4 O12"
_cell_length_a       6.87698
_cell_length_b       8.25485
_cell_length_c       13.7604
_cell_angle_alpha    89.9999
_cell_angle_beta     92.7039
_cell_angle_gamma    89.9998

_space_group_name_H-M_alt    "P 1"
_space_group_IT_number       1

loop_
  _space_group_symop_operation_xyz
  'x, y, z'

loop_
  _atom_site_type_symbol
  _atom_site_label
  _atom_site_symmetry_multiplicity
  _atom_site_fract_x
  _atom_site_fract_y
  _atom_site_fract_z
  _atom_site_occupancy
  Na  Na1       1.0  0.75293  0.50225  0.48409  1.0000
  Na  Na2       1.0  0.74707  0.00225  0.51591  1.0000
  Na  Na3       1.0  0.24707  0.49775  0.51591  1.0000
  Na  Na4       1.0  0.25293  0.99775  0.48409  1.0000
  H   H1        1.0  0.30884  0.68354  0.74730  1.0000
  H   H2        1.0  0.19116  0.18354  0.25270  1.0000
  H   H3        1.0  0.69115  0.31646  0.25270  1.0000
  H   H4        1.0  0.80884  0.81646  0.74730  1.0000
  H   H5        1.0  0.40830  0.67943  0.92393  1.0000
  H   H6        1.0  0.09170  0.17942  0.07607  1.0000
  H   H7        1.0  0.59170  0.32057  0.07607  1.0000
  H   H8        1.0  0.90830  0.82057  0.92393  1.0000
  H   H9        1.0  0.71479  0.53270  0.97973  1.0000
  H   H10       1.0  0.78521  0.03270  0.02027  1.0000
  H   H11       1.0  0.28521  0.46730  0.02027  1.0000
  H   H12       1.0  0.21479  0.96730  0.97973  1.0000
  H   H13       1.0  0.93877  0.23874  0.83831  1.0000
  H   H14       1.0  0.56124  0.73873  0.16169  1.0000
  H   H15       1.0  0.06124  0.76127  0.16169  1.0000
  H   H16       1.0  0.43876  0.26127  0.83831  1.0000
  H   H17       1.0  0.98845  0.36726  0.94019  1.0000
  H   H18       1.0  0.51155  0.86726  0.05981  1.0000
  H   H19       1.0  0.01155  0.63274  0.05982  1.0000
  H   H20       1.0  0.48845  0.13274  0.94019  1.0000
  H   H21       1.0  0.08587  0.41257  0.82534  1.0000
  H   H22       1.0  0.41413  0.91257  0.17466  1.0000
  H   H23       1.0  0.91413  0.58744  0.17466  1.0000
  H   H24       1.0  0.58587  0.08744  0.82534  1.0000
  H   H25       1.0  0.00122  0.26786  0.39783  1.0000
  H   H26       1.0  0.49878  0.76787  0.60217  1.0000
  H   H27       1.0  0.99878  0.73213  0.60217  1.0000
  H   H28       1.0  0.50122  0.23213  0.39783  1.0000
  H   H29       1.0  0.07446  0.42788  0.34531  1.0000
  H   H30       1.0  0.42554  0.92789  0.65469  1.0000
  H   H31       1.0  0.92554  0.57211  0.65469  1.0000
  H   H32       1.0  0.57446  0.07211  0.34531  1.0000
  H   H33       1.0  0.95182  0.23128  0.59947  1.0000
  H   H34       1.0  0.54818  0.73128  0.40053  1.0000
  H   H35       1.0  0.04818  0.76871  0.40053  1.0000
  H   H36       1.0  0.45182  0.26871  0.59947  1.0000
  H   H37       1.0  0.79312  0.33285  0.65175  1.0000
  H   H38       1.0  0.70688  0.83285  0.34825  1.0000
  H   H39       1.0  0.20687  0.66715  0.34825  1.0000
  H   H40       1.0  0.29312  0.16715  0.65175  1.0000
  C   C1        1.0  0.56520  0.55234  0.70490  1.0000
  C   C2        1.0  0.93480  0.05234  0.29510  1.0000
  C   C3        1.0  0.43480  0.44766  0.29510  1.0000
  C   C4        1.0  0.06520  0.94766  0.70490  1.0000
  C   C5        1.0  0.44277  0.62444  0.77369  1.0000
  C   C6        1.0  0.05722  0.12445  0.22631  1.0000
  C   C7        1.0  0.55722  0.37555  0.22631  1.0000
  C   C8        1.0  0.94278  0.87555  0.77369  1.0000
  C   C9        1.0  0.49838  0.61968  0.87147  1.0000
  C   C10       1.0  0.00162  0.11967  0.12853  1.0000
  C   C11       1.0  0.50162  0.38033  0.12853  1.0000
  C   C12       1.0  0.99838  0.88033  0.87147  1.0000
  C   C13       1.0  0.66982  0.53881  0.90289  1.0000
  C   C14       1.0  0.83018  0.03881  0.09711  1.0000
  C   C15       1.0  0.33018  0.46119  0.09711  1.0000
  C   C16       1.0  0.16982  0.96119  0.90289  1.0000
  C   C17       1.0  0.77912  0.46249  0.83365  1.0000
  C   C18       1.0  0.72088  0.96248  0.16634  1.0000
  C   C19       1.0  0.22088  0.53751  0.16634  1.0000
  C   C20       1.0  0.27911  0.03752  0.83366  1.0000
  C   C21       1.0  0.95785  0.36560  0.86125  1.0000
  C   C22       1.0  0.54216  0.86560  0.13875  1.0000
  C   C23       1.0  0.04216  0.63440  0.13875  1.0000
  C   C24       1.0  0.45784  0.13440  0.86125  1.0000
  N   N1        1.0  0.72866  0.47032  0.73738  1.0000
  N   N2        1.0  0.77134  0.97032  0.26262  1.0000
  N   N3        1.0  0.27134  0.52968  0.26262  1.0000
  N   N4        1.0  0.22866  0.02967  0.73738  1.0000
  O   O1        1.0  0.52986  0.56481  0.61153  1.0000
  O   O2        1.0  0.97014  0.06481  0.38846  1.0000
  O   O3        1.0  0.47014  0.43519  0.38847  1.0000
  O   O4        1.0  0.02986  0.93519  0.61153  1.0000
  O   O5        1.0  0.00436  0.38898  0.40143  1.0000
  O   O6        1.0  0.49565  0.88898  0.59856  1.0000
  O   O7        1.0  0.99565  0.61101  0.59857  1.0000
  O   O8        1.0  0.50435  0.11102  0.40143  1.0000
  O   O9        1.0  0.81456  0.26127  0.59326  1.0000
  O   O10       1.0  0.68544  0.76127  0.40674  1.0000
  O   O11       1.0  0.18543  0.73873  0.40674  1.0000
  O   O12       1.0  0.31456  0.23873  0.59326  1.0000
