data_image0
_chemical_formula_structural       Rb4H32C24N4O8
_chemical_formula_sum              "Rb4 H32 C24 N4 O8"
_cell_length_a       7.27424
_cell_length_b       7.71391
_cell_length_c       13.6454
_cell_angle_alpha    90.0004
_cell_angle_beta     98.3603
_cell_angle_gamma    89.9998

_space_group_name_H-M_alt    "P 1"
_space_group_IT_number       1

loop_
  _space_group_symop_operation_xyz
  'x, y, z'

loop_
  _atom_site_type_symbol
  _atom_site_label
  _atom_site_symmetry_multiplicity
  _atom_site_fract_x
  _atom_site_fract_y
  _atom_site_fract_z
  _atom_site_occupancy
  Rb  Rb1       1.0  0.77102  0.59031  0.56839  1.0000
  Rb  Rb2       1.0  0.72898  0.09031  0.43162  1.0000
  Rb  Rb3       1.0  0.22899  0.40968  0.43162  1.0000
  Rb  Rb4       1.0  0.27102  0.90969  0.56839  1.0000
  H   H1        1.0  0.57980  0.70918  0.78714  1.0000
  H   H2        1.0  0.92020  0.20918  0.21287  1.0000
  H   H3        1.0  0.42020  0.29082  0.21286  1.0000
  H   H4        1.0  0.07980  0.79083  0.78714  1.0000
  H   H5        1.0  0.48628  0.69304  0.95535  1.0000
  H   H6        1.0  0.01371  0.19304  0.04466  1.0000
  H   H7        1.0  0.51372  0.30696  0.04464  1.0000
  H   H8        1.0  0.98628  0.80697  0.95535  1.0000
  H   H9        1.0  0.20433  0.51816  0.98027  1.0000
  H   H10       1.0  0.29566  0.01816  0.01973  1.0000
  H   H11       1.0  0.79567  0.48184  0.01972  1.0000
  H   H12       1.0  0.70433  0.98185  0.98027  1.0000
  H   H13       1.0  0.86879  0.35630  0.77061  1.0000
  H   H14       1.0  0.63121  0.85630  0.22938  1.0000
  H   H15       1.0  0.13121  0.64369  0.22939  1.0000
  H   H16       1.0  0.36879  0.14370  0.77061  1.0000
  H   H17       1.0  0.91573  0.37926  0.90179  1.0000
  H   H18       1.0  0.58426  0.87926  0.09821  1.0000
  H   H19       1.0  0.08427  0.62074  0.09821  1.0000
  H   H20       1.0  0.41573  0.12075  0.90179  1.0000
  H   H21       1.0  0.01381  0.20581  0.84154  1.0000
  H   H22       1.0  0.48619  0.70581  0.15845  1.0000
  H   H23       1.0  0.98620  0.79419  0.15846  1.0000
  H   H24       1.0  0.51380  0.29419  0.84155  1.0000
  H   H25       1.0  0.03104  0.83642  0.39308  1.0000
  H   H26       1.0  0.46896  0.33643  0.60692  1.0000
  H   H27       1.0  0.96896  0.16357  0.60692  1.0000
  H   H28       1.0  0.53104  0.66357  0.39308  1.0000
  H   H29       1.0  0.91584  0.66205  0.36072  1.0000
  H   H30       1.0  0.58417  0.16205  0.63928  1.0000
  H   H31       1.0  0.08416  0.33795  0.63928  1.0000
  H   H32       1.0  0.41584  0.83795  0.36072  1.0000
  C   C1        1.0  0.35012  0.54941  0.71846  1.0000
  C   C2        1.0  0.14988  0.04940  0.28154  1.0000
  C   C3        1.0  0.64987  0.45059  0.28153  1.0000
  C   C4        1.0  0.85013  0.95059  0.71847  1.0000
  C   C5        1.0  0.45639  0.63749  0.79972  1.0000
  C   C6        1.0  0.04361  0.13749  0.20028  1.0000
  C   C7        1.0  0.54362  0.36251  0.20027  1.0000
  C   C8        1.0  0.95638  0.86252  0.79973  1.0000
  C   C9        1.0  0.40375  0.62763  0.89305  1.0000
  C   C10       1.0  0.09625  0.12763  0.10695  1.0000
  C   C11       1.0  0.59625  0.37237  0.10694  1.0000
  C   C12       1.0  0.90375  0.87237  0.89306  1.0000
  C   C13       1.0  0.24627  0.53167  0.90727  1.0000
  C   C14       1.0  0.25373  0.03167  0.09273  1.0000
  C   C15       1.0  0.75373  0.46833  0.09272  1.0000
  C   C16       1.0  0.74627  0.96834  0.90727  1.0000
  C   C17       1.0  0.14398  0.45163  0.82529  1.0000
  C   C18       1.0  0.35602  0.95163  0.17471  1.0000
  C   C19       1.0  0.85602  0.54837  0.17470  1.0000
  C   C20       1.0  0.64398  0.04837  0.82529  1.0000
  C   C21       1.0  0.97626  0.34406  0.83553  1.0000
  C   C22       1.0  0.52374  0.84406  0.16446  1.0000
  C   C23       1.0  0.02374  0.65594  0.16447  1.0000
  C   C24       1.0  0.47626  0.15594  0.83553  1.0000
  N   N1        1.0  0.19298  0.46178  0.73370  1.0000
  N   N2        1.0  0.30702  0.96178  0.26630  1.0000
  N   N3        1.0  0.80701  0.53821  0.26630  1.0000
  N   N4        1.0  0.69299  0.03822  0.73370  1.0000
  O   O1        1.0  0.39870  0.54915  0.63032  1.0000
  O   O2        1.0  0.10131  0.04914  0.36968  1.0000
  O   O3        1.0  0.60131  0.45085  0.36968  1.0000
  O   O4        1.0  0.89870  0.95086  0.63032  1.0000
  O   O5        1.0  0.98587  0.72678  0.41969  1.0000
  O   O6        1.0  0.51413  0.22678  0.58031  1.0000
  O   O7        1.0  0.01413  0.27321  0.58031  1.0000
  O   O8        1.0  0.48588  0.77321  0.41969  1.0000
