data_image0
_chemical_formula_structural       Cs4H40C28N4O8
_chemical_formula_sum              "Cs4 H40 C28 N4 O8"
_cell_length_a       7.1524
_cell_length_b       10.7472
_cell_length_c       12.1441
_cell_angle_alpha    90.0001
_cell_angle_beta     90.0001
_cell_angle_gamma    92.3571

_space_group_name_H-M_alt    "P 1"
_space_group_IT_number       1

loop_
  _space_group_symop_operation_xyz
  'x, y, z'

loop_
  _atom_site_type_symbol
  _atom_site_label
  _atom_site_symmetry_multiplicity
  _atom_site_fract_x
  _atom_site_fract_y
  _atom_site_fract_z
  _atom_site_occupancy
  Cs  Cs1       1.0  0.22877  0.06403  0.85644  1.0000
  Cs  Cs2       1.0  0.27123  0.93598  0.35645  1.0000
  Cs  Cs3       1.0  0.77123  0.93597  0.14355  1.0000
  Cs  Cs4       1.0  0.72877  0.06403  0.64355  1.0000
  H   H1        1.0  0.48825  0.19079  0.44222  1.0000
  H   H2        1.0  0.01175  0.80920  0.94222  1.0000
  H   H3        1.0  0.51175  0.80920  0.55778  1.0000
  H   H4        1.0  0.98825  0.19079  0.05778  1.0000
  H   H5        1.0  0.43482  0.41746  0.41785  1.0000
  H   H6        1.0  0.06518  0.58253  0.91786  1.0000
  H   H7        1.0  0.56518  0.58253  0.58214  1.0000
  H   H8        1.0  0.93482  0.41746  0.08215  1.0000
  H   H9        1.0  0.19109  0.51741  0.53434  1.0000
  H   H10       1.0  0.30891  0.48258  0.03436  1.0000
  H   H11       1.0  0.80891  0.48259  0.46564  1.0000
  H   H12       1.0  0.69109  0.51741  0.96566  1.0000
  H   H13       1.0  0.82648  0.36862  0.66089  1.0000
  H   H14       1.0  0.67352  0.63138  0.16090  1.0000
  H   H15       1.0  0.17352  0.63138  0.33910  1.0000
  H   H16       1.0  0.32648  0.36862  0.83911  1.0000
  H   H17       1.0  0.97496  0.50093  0.68711  1.0000
  H   H18       1.0  0.52504  0.49907  0.18712  1.0000
  H   H19       1.0  0.02504  0.49907  0.31288  1.0000
  H   H20       1.0  0.47496  0.50093  0.81289  1.0000
  H   H21       1.0  0.97981  0.36718  0.77446  1.0000
  H   H22       1.0  0.52019  0.63282  0.27447  1.0000
  H   H23       1.0  0.02019  0.63282  0.22553  1.0000
  H   H24       1.0  0.47981  0.36718  0.72554  1.0000
  H   H25       1.0  0.00467  0.70798  0.69504  1.0000
  H   H26       1.0  0.49533  0.29202  0.19504  1.0000
  H   H27       1.0  0.99533  0.29202  0.30496  1.0000
  H   H28       1.0  0.50467  0.70798  0.80496  1.0000
  H   H29       1.0  0.24623  0.75642  0.70058  1.0000
  H   H30       1.0  0.25377  0.24358  0.20058  1.0000
  H   H31       1.0  0.75377  0.24358  0.29942  1.0000
  H   H32       1.0  0.74623  0.75642  0.79942  1.0000
  H   H33       1.0  0.12707  0.74149  0.57079  1.0000
  H   H34       1.0  0.37292  0.25851  0.07079  1.0000
  H   H35       1.0  0.87293  0.25851  0.42921  1.0000
  H   H36       1.0  0.62707  0.74149  0.92921  1.0000
  H   H37       1.0  0.15216  0.95437  0.63374  1.0000
  H   H38       1.0  0.34784  0.04563  0.13374  1.0000
  H   H39       1.0  0.84784  0.04563  0.36626  1.0000
  H   H40       1.0  0.65216  0.95437  0.86626  1.0000
  C   C1        1.0  0.27553  0.16613  0.56987  1.0000
  C   C2        1.0  0.22447  0.83387  0.06987  1.0000
  C   C3        1.0  0.72447  0.83387  0.43013  1.0000
  C   C4        1.0  0.77554  0.16613  0.93013  1.0000
  C   C5        1.0  0.38392  0.23718  0.49131  1.0000
  C   C6        1.0  0.11608  0.76281  0.99132  1.0000
  C   C7        1.0  0.61608  0.76281  0.50868  1.0000
  C   C8        1.0  0.88393  0.23718  0.00868  1.0000
  C   C9        1.0  0.35301  0.36249  0.47776  1.0000
  C   C10       1.0  0.14699  0.63750  0.97777  1.0000
  C   C11       1.0  0.64699  0.63751  0.52223  1.0000
  C   C12       1.0  0.85301  0.36249  0.02224  1.0000
  C   C13       1.0  0.21770  0.41877  0.54232  1.0000
  C   C14       1.0  0.28230  0.58123  0.04233  1.0000
  C   C15       1.0  0.78230  0.58123  0.45767  1.0000
  C   C16       1.0  0.71771  0.41877  0.95768  1.0000
  C   C17       1.0  0.11561  0.34481  0.61741  1.0000
  C   C18       1.0  0.38439  0.65519  0.11742  1.0000
  C   C19       1.0  0.88439  0.65519  0.38258  1.0000
  C   C20       1.0  0.61561  0.34481  0.88259  1.0000
  C   C21       1.0  0.96762  0.39888  0.68888  1.0000
  C   C22       1.0  0.53238  0.60112  0.18889  1.0000
  C   C23       1.0  0.03238  0.60112  0.31111  1.0000
  C   C24       1.0  0.46762  0.39888  0.81112  1.0000
  C   C25       1.0  0.11251  0.77034  0.65762  1.0000
  C   C26       1.0  0.38749  0.22966  0.15762  1.0000
  C   C27       1.0  0.88749  0.22966  0.34238  1.0000
  C   C28       1.0  0.61251  0.77034  0.84238  1.0000
  N   N1        1.0  0.14192  0.22196  0.63064  1.0000
  N   N2        1.0  0.35809  0.77804  0.13064  1.0000
  N   N3        1.0  0.85809  0.77804  0.36935  1.0000
  N   N4        1.0  0.64192  0.22196  0.86936  1.0000
  O   O1        1.0  0.30517  0.04856  0.58547  1.0000
  O   O2        1.0  0.19483  0.95144  0.08546  1.0000
  O   O3        1.0  0.69483  0.95144  0.41454  1.0000
  O   O4        1.0  0.80517  0.04856  0.91453  1.0000
  O   O5        1.0  0.05392  0.89441  0.66759  1.0000
  O   O6        1.0  0.44608  0.10559  0.16759  1.0000
  O   O7        1.0  0.94608  0.10560  0.33240  1.0000
  O   O8        1.0  0.55392  0.89441  0.83241  1.0000
