data_image0
_chemical_formula_structural       Gd2MnH32C16O20
_chemical_formula_sum              "Gd2 Mn1 H32 C16 O20"
_cell_length_a       7.9786
_cell_length_b       9.85797
_cell_length_c       11.156
_cell_angle_alpha    110.801
_cell_angle_beta     107.058
_cell_angle_gamma    92.1802

_space_group_name_H-M_alt    "P 1"
_space_group_IT_number       1

loop_
  _space_group_symop_operation_xyz
  'x, y, z'

loop_
  _atom_site_type_symbol
  _atom_site_label
  _atom_site_symmetry_multiplicity
  _atom_site_fract_x
  _atom_site_fract_y
  _atom_site_fract_z
  _atom_site_occupancy
  Gd  Gd1       1.0  0.90147  0.57539  0.15687  1.0000
  Gd  Gd2       1.0  0.09854  0.42462  0.84313  1.0000
  Mn  Mn1       1.0  0.99999  0.49999  0.50000  1.0000
  H   H1        1.0  0.41823  0.47414  0.09265  1.0000
  H   H2        1.0  0.58177  0.52587  0.90735  1.0000
  H   H3        1.0  0.24209  0.41582  0.11071  1.0000
  H   H4        1.0  0.75791  0.58419  0.88929  1.0000
  H   H5        1.0  0.05940  0.12281  0.70395  1.0000
  H   H6        1.0  0.94060  0.87720  0.29606  1.0000
  H   H7        1.0  0.25260  0.14277  0.80779  1.0000
  H   H8        1.0  0.74741  0.85724  0.19222  1.0000
  H   H9        1.0  0.55619  0.18471  0.76386  1.0000
  H   H10       1.0  0.44380  0.81529  0.23613  1.0000
  H   H11       1.0  0.74823  0.09864  0.76398  1.0000
  H   H12       1.0  0.25178  0.90137  0.23602  1.0000
  H   H13       1.0  0.61141  0.07170  0.85961  1.0000
  H   H14       1.0  0.38859  0.92831  0.14040  1.0000
  H   H15       1.0  0.43451  0.53519  0.58425  1.0000
  H   H16       1.0  0.56548  0.46480  0.41575  1.0000
  H   H17       1.0  0.58050  0.42922  0.65725  1.0000
  H   H18       1.0  0.41950  0.57077  0.34275  1.0000
  H   H19       1.0  0.39192  0.34216  0.50682  1.0000
  H   H20       1.0  0.60807  0.65783  0.49318  1.0000
  H   H21       1.0  0.89868  0.83893  0.93112  1.0000
  H   H22       1.0  0.10132  0.16107  0.06887  1.0000
  H   H23       1.0  0.87951  0.90201  0.79554  1.0000
  H   H24       1.0  0.12049  0.09799  0.20445  1.0000
  H   H25       1.0  0.69308  0.80002  0.80097  1.0000
  H   H26       1.0  0.30692  0.19998  0.19903  1.0000
  H   H27       1.0  0.69659  0.01473  0.41761  1.0000
  H   H28       1.0  0.30342  0.98525  0.58239  1.0000
  H   H29       1.0  0.56129  0.13173  0.35482  1.0000
  H   H30       1.0  0.43871  0.86826  0.64518  1.0000
  H   H31       1.0  0.56980  0.11741  0.51223  1.0000
  H   H32       1.0  0.43020  0.88258  0.48777  1.0000
  C   C1        1.0  0.76898  0.28554  0.94536  1.0000
  C   C2        1.0  0.23103  0.71447  0.05464  1.0000
  C   C3        1.0  0.66661  0.14956  0.82599  1.0000
  C   C4        1.0  0.33338  0.85045  0.17401  1.0000
  C   C5        1.0  0.32578  0.43052  0.68659  1.0000
  C   C6        1.0  0.67422  0.56948  0.31341  1.0000
  C   C7        1.0  0.88521  0.66991  0.74038  1.0000
  C   C8        1.0  0.11478  0.33009  0.25961  1.0000
  C   C9        1.0  0.80237  0.24440  0.52211  1.0000
  C   C10       1.0  0.19763  0.75559  0.47790  1.0000
  C   C11       1.0  0.44313  0.43492  0.60541  1.0000
  C   C12       1.0  0.55687  0.56507  0.39459  1.0000
  C   C13       1.0  0.83776  0.81244  0.82188  1.0000
  C   C14       1.0  0.16224  0.18756  0.17811  1.0000
  C   C15       1.0  0.64698  0.12023  0.44604  1.0000
  C   C16       1.0  0.35302  0.87975  0.55396  1.0000
  O   O1        1.0  0.10064  0.64021  0.06261  1.0000
  O   O2        1.0  0.89936  0.35979  0.93739  1.0000
  O   O3        1.0  0.72341  0.33182  0.05039  1.0000
  O   O4        1.0  0.27660  0.66818  0.94961  1.0000
  O   O5        1.0  0.16784  0.46157  0.65425  1.0000
  O   O6        1.0  0.83216  0.53843  0.34575  1.0000
  O   O7        1.0  0.88035  0.56247  0.78119  1.0000
  O   O8        1.0  0.11965  0.43753  0.21881  1.0000
  O   O9        1.0  0.37778  0.39505  0.79060  1.0000
  O   O10       1.0  0.62222  0.60496  0.20941  1.0000
  O   O11       1.0  0.30436  0.40590  0.04285  1.0000
  O   O12       1.0  0.69563  0.59411  0.95716  1.0000
  O   O13       1.0  0.13086  0.15813  0.80057  1.0000
  O   O14       1.0  0.86914  0.84187  0.19944  1.0000
  O   O15       1.0  0.91020  0.24445  0.63333  1.0000
  O   O16       1.0  0.08980  0.75554  0.36667  1.0000
  O   O17       1.0  0.92287  0.66274  0.63605  1.0000
  O   O18       1.0  0.07713  0.33725  0.36394  1.0000
  O   O19       1.0  0.81291  0.33879  0.47056  1.0000
  O   O20       1.0  0.18709  0.66120  0.52944  1.0000
