data_image0
_chemical_formula_structural       Cu2H18C18Br2N6
_chemical_formula_sum              "Cu2 H18 C18 Br2 N6"
_cell_length_a       7.58396
_cell_length_b       8.32927
_cell_length_c       9.09177
_cell_angle_alpha    96.3173
_cell_angle_beta     113.644
_cell_angle_gamma    108.898

_space_group_name_H-M_alt    "P 1"
_space_group_IT_number       1

loop_
  _space_group_symop_operation_xyz
  'x, y, z'

loop_
  _atom_site_type_symbol
  _atom_site_label
  _atom_site_symmetry_multiplicity
  _atom_site_fract_x
  _atom_site_fract_y
  _atom_site_fract_z
  _atom_site_occupancy
  Cu  Cu1       1.0  0.04726  0.18130  0.48146  1.0000
  Cu  Cu2       1.0  0.95274  0.81870  0.51854  1.0000
  H   H1        1.0  0.01207  0.35074  0.95104  1.0000
  H   H2        1.0  0.98793  0.64926  0.04896  1.0000
  H   H3        1.0  0.21724  0.18375  0.90420  1.0000
  H   H4        1.0  0.78275  0.81624  0.09580  1.0000
  H   H5        1.0  0.37769  0.04473  0.12715  1.0000
  H   H6        1.0  0.62231  0.95526  0.87285  1.0000
  H   H7        1.0  0.30656  0.06174  0.37175  1.0000
  H   H8        1.0  0.69343  0.93825  0.62825  1.0000
  H   H9        1.0  0.60756  0.26413  0.01908  1.0000
  H   H10       1.0  0.39243  0.73586  0.98092  1.0000
  H   H11       1.0  0.57927  0.54512  0.18800  1.0000
  H   H12       1.0  0.42073  0.45489  0.81200  1.0000
  H   H13       1.0  0.28522  0.72300  0.56635  1.0000
  H   H14       1.0  0.71479  0.27701  0.43364  1.0000
  H   H15       1.0  0.34124  0.72702  0.39329  1.0000
  H   H16       1.0  0.65876  0.27299  0.60670  1.0000
  H   H17       1.0  0.33033  0.54404  0.48198  1.0000
  H   H18       1.0  0.66967  0.45596  0.51802  1.0000
  C   C1        1.0  0.05463  0.29427  0.18482  1.0000
  C   C2        1.0  0.94537  0.70573  0.81519  1.0000
  C   C3        1.0  0.08110  0.28516  0.04122  1.0000
  C   C4        1.0  0.91890  0.71485  0.95878  1.0000
  C   C5        1.0  0.19642  0.19415  0.01632  1.0000
  C   C6        1.0  0.80358  0.80584  0.98368  1.0000
  C   C7        1.0  0.28259  0.11500  0.13752  1.0000
  C   C8        1.0  0.71740  0.88499  0.86247  1.0000
  C   C9        1.0  0.24592  0.12517  0.27563  1.0000
  C   C10       1.0  0.75409  0.87483  0.72437  1.0000
  C   C11       1.0  0.94062  0.39673  0.21502  1.0000
  C   C12       1.0  0.05938  0.60327  0.78498  1.0000
  C   C13       1.0  0.73084  0.37211  0.12779  1.0000
  C   C14       1.0  0.26916  0.62789  0.87221  1.0000
  C   C15       1.0  0.71508  0.51443  0.21169  1.0000
  C   C16       1.0  0.28492  0.48556  0.78831  1.0000
  C   C17       1.0  0.26318  0.64149  0.45226  1.0000
  C   C18       1.0  0.73683  0.35852  0.54774  1.0000
  Br  Br1       1.0  0.31259  0.06347  0.67137  1.0000
  Br  Br2       1.0  0.68741  0.93652  0.32863  1.0000
  N   N1        1.0  0.13334  0.21198  0.30085  1.0000
  N   N2        1.0  0.86667  0.78802  0.69915  1.0000
  N   N3        1.0  0.90327  0.62277  0.34109  1.0000
  N   N4        1.0  0.09673  0.37723  0.65890  1.0000
  N   N5        1.0  0.03932  0.54913  0.34164  1.0000
  N   N6        1.0  0.96068  0.45087  0.65835  1.0000
