data_image0
_chemical_formula_structural       Mn2H24C16N20
_chemical_formula_sum              "Mn2 H24 C16 N20"
_cell_length_a       6.2402
_cell_length_b       6.50512
_cell_length_c       14.8377
_cell_angle_alpha    94.2443
_cell_angle_beta     89.9997
_cell_angle_gamma    90.0003

_space_group_name_H-M_alt    "P 1"
_space_group_IT_number       1

loop_
  _space_group_symop_operation_xyz
  'x, y, z'

loop_
  _atom_site_type_symbol
  _atom_site_label
  _atom_site_symmetry_multiplicity
  _atom_site_fract_x
  _atom_site_fract_y
  _atom_site_fract_z
  _atom_site_occupancy
  Mn  Mn1       1.0  0.50000  0.49998  0.50000  1.0000
  Mn  Mn2       1.0  0.00000  0.00004  0.00000  1.0000
  H   H1        1.0  0.68797  0.33609  0.69810  1.0000
  H   H2        1.0  0.18794  0.16399  0.80188  1.0000
  H   H3        1.0  0.31202  0.66393  0.30189  1.0000
  H   H4        1.0  0.81200  0.83615  0.19810  1.0000
  H   H5        1.0  0.13376  0.68621  0.65562  1.0000
  H   H6        1.0  0.63379  0.81380  0.84440  1.0000
  H   H7        1.0  0.86622  0.31380  0.34439  1.0000
  H   H8        1.0  0.36626  0.18622  0.15563  1.0000
  H   H9        1.0  0.17253  0.63408  0.83928  1.0000
  H   H10       1.0  0.67252  0.86587  0.66073  1.0000
  H   H11       1.0  0.82750  0.36594  0.16074  1.0000
  H   H12       1.0  0.32751  0.13403  0.33928  1.0000
  H   H13       1.0  0.65114  0.27358  0.86425  1.0000
  H   H14       1.0  0.15112  0.22638  0.63572  1.0000
  H   H15       1.0  0.34889  0.72641  0.13574  1.0000
  H   H16       1.0  0.84887  0.77356  0.36425  1.0000
  H   H17       1.0  0.40523  0.34806  0.91927  1.0000
  H   H18       1.0  0.90521  0.15188  0.58071  1.0000
  H   H19       1.0  0.59478  0.65191  0.08072  1.0000
  H   H20       1.0  0.09476  0.84805  0.41927  1.0000
  H   H21       1.0  0.61950  0.52939  0.91449  1.0000
  H   H22       1.0  0.11948  0.97056  0.58551  1.0000
  H   H23       1.0  0.38051  0.47060  0.08552  1.0000
  H   H24       1.0  0.88050  0.02936  0.41448  1.0000
  C   C1        1.0  0.54209  0.42415  0.70960  1.0000
  C   C2        1.0  0.04207  0.07589  0.79040  1.0000
  C   C3        1.0  0.45791  0.57586  0.29040  1.0000
  C   C4        1.0  0.95791  0.92419  0.20959  1.0000
  C   C5        1.0  0.25634  0.60731  0.69139  1.0000
  C   C6        1.0  0.75635  0.89270  0.80862  1.0000
  C   C7        1.0  0.74366  0.39269  0.30862  1.0000
  C   C8        1.0  0.24368  0.10732  0.19140  1.0000
  C   C9        1.0  0.27032  0.57930  0.78215  1.0000
  C   C10       1.0  0.77031  0.92068  0.71785  1.0000
  C   C11       1.0  0.72970  0.42071  0.21785  1.0000
  C   C12       1.0  0.22970  0.07927  0.28215  1.0000
  C   C13       1.0  0.53719  0.39977  0.87774  1.0000
  C   C14       1.0  0.03716  0.10018  0.62224  1.0000
  C   C15       1.0  0.46283  0.60021  0.12225  1.0000
  C   C16       1.0  0.96281  0.89976  0.37774  1.0000
  N   N1        1.0  0.42713  0.51018  0.64663  1.0000
  N   N2        1.0  0.92714  0.98987  0.85337  1.0000
  N   N3        1.0  0.57285  0.48983  0.35337  1.0000
  N   N4        1.0  0.07286  0.01022  0.14663  1.0000
  N   N5        1.0  0.45210  0.46172  0.79248  1.0000
  N   N6        1.0  0.95209  0.03828  0.70752  1.0000
  N   N7        1.0  0.54791  0.53829  0.20753  1.0000
  N   N8        1.0  0.04791  0.96172  0.29247  1.0000
  N   N9        1.0  0.41971  0.83497  0.50053  1.0000
  N   N10       1.0  0.91970  0.66506  0.99946  1.0000
  N   N11       1.0  0.58029  0.16502  0.49946  1.0000
  N   N12       1.0  0.08029  0.33501  0.00052  1.0000
  N   N13       1.0  0.50000  0.99999  0.50000  1.0000
  N   N14       1.0  0.00000  0.50003  0.99999  1.0000
  N   N15       1.0  0.83962  0.57206  0.53146  1.0000
  N   N16       1.0  0.33962  0.92791  0.96856  1.0000
  N   N17       1.0  0.16037  0.42791  0.46856  1.0000
  N   N18       1.0  0.66038  0.07206  0.03147  1.0000
  N   N19       1.0  0.00001  0.49998  0.50001  1.0000
  N   N20       1.0  0.49999  0.99999  0.00001  1.0000
