data_image0
_chemical_formula_structural       Cu4H28C20I4N12
_chemical_formula_sum              "Cu4 H28 C20 I4 N12"
_cell_length_a       4.19923
_cell_length_b       11.8806
_cell_length_c       15.0258
_cell_angle_alpha    90.0007
_cell_angle_beta     99.1511
_cell_angle_gamma    90.0001

_space_group_name_H-M_alt    "P 1"
_space_group_IT_number       1

loop_
  _space_group_symop_operation_xyz
  'x, y, z'

loop_
  _atom_site_type_symbol
  _atom_site_label
  _atom_site_symmetry_multiplicity
  _atom_site_fract_x
  _atom_site_fract_y
  _atom_site_fract_z
  _atom_site_occupancy
  Cu  Cu1       1.0  0.71621  0.03681  0.07891  1.0000
  Cu  Cu2       1.0  0.28379  0.53682  0.42109  1.0000
  Cu  Cu3       1.0  0.28379  0.96318  0.92109  1.0000
  Cu  Cu4       1.0  0.71621  0.46319  0.57891  1.0000
  H   H1        1.0  0.42442  0.84303  0.35790  1.0000
  H   H2        1.0  0.57556  0.34302  0.14210  1.0000
  H   H3        1.0  0.57557  0.15698  0.64210  1.0000
  H   H4        1.0  0.42440  0.65697  0.85790  1.0000
  H   H5        1.0  0.71500  0.97895  0.47031  1.0000
  H   H6        1.0  0.28498  0.47894  0.02969  1.0000
  H   H7        1.0  0.28499  0.02105  0.52969  1.0000
  H   H8        1.0  0.71498  0.52105  0.97031  1.0000
  H   H9        1.0  0.01045  0.14143  0.41485  1.0000
  H   H10       1.0  0.98957  0.64143  0.08515  1.0000
  H   H11       1.0  0.98957  0.85857  0.58516  1.0000
  H   H12       1.0  0.01043  0.35857  0.91484  1.0000
  H   H13       1.0  0.07182  0.17925  0.17909  1.0000
  H   H14       1.0  0.92819  0.67925  0.32092  1.0000
  H   H15       1.0  0.92820  0.82075  0.82092  1.0000
  H   H16       1.0  0.07181  0.32075  0.67908  1.0000
  H   H17       1.0  0.21664  0.22070  0.28716  1.0000
  H   H18       1.0  0.78337  0.72070  0.21285  1.0000
  H   H19       1.0  0.78338  0.77930  0.71285  1.0000
  H   H20       1.0  0.21663  0.27930  0.78715  1.0000
  H   H21       1.0  0.37378  0.87847  0.11854  1.0000
  H   H22       1.0  0.62622  0.37847  0.38146  1.0000
  H   H23       1.0  0.62623  0.12153  0.88146  1.0000
  H   H24       1.0  0.37378  0.62153  0.61853  1.0000
  H   H25       1.0  0.25473  0.80445  0.20590  1.0000
  H   H26       1.0  0.74526  0.30445  0.29410  1.0000
  H   H27       1.0  0.74527  0.19555  0.79410  1.0000
  H   H28       1.0  0.25473  0.69556  0.70590  1.0000
  C   C1        1.0  0.57274  0.92963  0.24516  1.0000
  C   C2        1.0  0.42726  0.42963  0.25483  1.0000
  C   C3        1.0  0.42726  0.07037  0.75483  1.0000
  C   C4        1.0  0.57273  0.57037  0.74517  1.0000
  C   C5        1.0  0.88729  0.09118  0.27576  1.0000
  C   C6        1.0  0.11271  0.59118  0.22424  1.0000
  C   C7        1.0  0.11271  0.90882  0.72425  1.0000
  C   C8        1.0  0.88729  0.40882  0.77575  1.0000
  C   C9        1.0  0.56031  0.91356  0.33701  1.0000
  C   C10       1.0  0.43968  0.41356  0.16299  1.0000
  C   C11       1.0  0.43968  0.08644  0.66299  1.0000
  C   C12       1.0  0.56030  0.58644  0.83701  1.0000
  C   C13       1.0  0.72007  0.98953  0.39857  1.0000
  C   C14       1.0  0.27992  0.48953  0.10143  1.0000
  C   C15       1.0  0.27994  0.01047  0.60143  1.0000
  C   C16       1.0  0.72006  0.51047  0.89857  1.0000
  C   C17       1.0  0.88504  0.07948  0.36860  1.0000
  C   C18       1.0  0.11496  0.57948  0.13140  1.0000
  C   C19       1.0  0.11497  0.92052  0.63140  1.0000
  C   C20       1.0  0.88503  0.42052  0.86860  1.0000
  I   I1        1.0  0.19061  0.15085  0.01629  1.0000
  I   I2        1.0  0.80940  0.65085  0.48371  1.0000
  I   I3        1.0  0.80940  0.84914  0.98371  1.0000
  I   I4        1.0  0.19060  0.34915  0.51629  1.0000
  N   N1        1.0  0.73416  0.01713  0.21395  1.0000
  N   N2        1.0  0.26585  0.51713  0.28605  1.0000
  N   N3        1.0  0.26586  0.98287  0.78605  1.0000
  N   N4        1.0  0.73415  0.48287  0.71395  1.0000
  N   N5        1.0  0.03161  0.18371  0.24436  1.0000
  N   N6        1.0  0.96839  0.68371  0.25564  1.0000
  N   N7        1.0  0.96840  0.81629  0.75564  1.0000
  N   N8        1.0  0.03161  0.31629  0.74436  1.0000
  N   N9        1.0  0.42990  0.85200  0.18376  1.0000
  N   N10       1.0  0.57010  0.35200  0.31624  1.0000
  N   N11       1.0  0.57011  0.14800  0.81624  1.0000
  N   N12       1.0  0.42990  0.64800  0.68376  1.0000
