data_image0
_chemical_formula_structural       Ag2H24C40N6O6
_chemical_formula_sum              "Ag2 H24 C40 N6 O6"
_cell_length_a       5.28374
_cell_length_b       9.55259
_cell_length_c       17.4342
_cell_angle_alpha    88.6459
_cell_angle_beta     84.4416
_cell_angle_gamma    73.8593

_space_group_name_H-M_alt    "P 1"
_space_group_IT_number       1

loop_
  _space_group_symop_operation_xyz
  'x, y, z'

loop_
  _atom_site_type_symbol
  _atom_site_label
  _atom_site_symmetry_multiplicity
  _atom_site_fract_x
  _atom_site_fract_y
  _atom_site_fract_z
  _atom_site_occupancy
  Ag  Ag1       1.0  0.46268  0.07555  0.74985  1.0000
  Ag  Ag2       1.0  0.53732  0.92445  0.25015  1.0000
  H   H1        1.0  0.80898  0.22067  0.83377  1.0000
  H   H2        1.0  0.97304  0.22109  0.66571  1.0000
  H   H3        1.0  0.19102  0.77932  0.16624  1.0000
  H   H4        1.0  0.02697  0.77890  0.33429  1.0000
  H   H5        1.0  0.21761  0.39117  0.09134  1.0000
  H   H6        1.0  0.39498  0.39206  0.40915  1.0000
  H   H7        1.0  0.78237  0.60883  0.90866  1.0000
  H   H8        1.0  0.60501  0.60794  0.59085  1.0000
  H   H9        1.0  0.81902  0.78731  0.81487  1.0000
  H   H10       1.0  0.39215  0.78696  0.68517  1.0000
  H   H11       1.0  0.18099  0.21269  0.18513  1.0000
  H   H12       1.0  0.60785  0.21304  0.31483  1.0000
  H   H13       1.0  0.36732  0.89470  0.95569  1.0000
  H   H14       1.0  0.73588  0.89528  0.54468  1.0000
  H   H15       1.0  0.63268  0.10530  0.04431  1.0000
  H   H16       1.0  0.26412  0.10473  0.45532  1.0000
  H   H17       1.0  0.58562  0.42712  0.86149  1.0000
  H   H18       1.0  0.98428  0.42690  0.63818  1.0000
  H   H19       1.0  0.41437  0.57288  0.13851  1.0000
  H   H20       1.0  0.01572  0.57310  0.36182  1.0000
  H   H21       1.0  0.18659  0.70678  0.89934  1.0000
  H   H22       1.0  0.10291  0.70680  0.60108  1.0000
  H   H23       1.0  0.81341  0.29322  0.10066  1.0000
  H   H24       1.0  0.89709  0.29320  0.39891  1.0000
  C   C1        1.0  0.89245  0.10895  0.85166  1.0000
  C   C2        1.0  0.00003  0.10919  0.64806  1.0000
  C   C3        1.0  0.10755  0.89105  0.14834  1.0000
  C   C4        1.0  0.99996  0.89081  0.35194  1.0000
  C   C5        1.0  0.10098  0.07389  0.89969  1.0000
  C   C6        1.0  0.82545  0.07438  0.60030  1.0000
  C   C7        1.0  0.89902  0.92611  0.10031  1.0000
  C   C8        1.0  0.17456  0.92562  0.39970  1.0000
  C   C9        1.0  0.20662  0.92605  0.91843  1.0000
  C   C10       1.0  0.86605  0.92645  0.58177  1.0000
  C   C11       1.0  0.79338  0.07394  0.08157  1.0000
  C   C12       1.0  0.13396  0.07355  0.41823  1.0000
  C   C13       1.0  0.10539  0.82218  0.88772  1.0000
  C   C14       1.0  0.07041  0.82224  0.61250  1.0000
  C   C15       1.0  0.89461  0.17782  0.11228  1.0000
  C   C16       1.0  0.92960  0.17777  0.38750  1.0000
  C   C17       1.0  0.89918  0.86664  0.84068  1.0000
  C   C18       1.0  0.23320  0.86643  0.65933  1.0000
  C   C19       1.0  0.10082  0.13336  0.15931  1.0000
  C   C20       1.0  0.76681  0.13357  0.34067  1.0000
  C   C21       1.0  0.19979  0.18545  0.92670  1.0000
  C   C22       1.0  0.61543  0.18620  0.57331  1.0000
  C   C23       1.0  0.80020  0.81455  0.07329  1.0000
  C   C24       1.0  0.38458  0.81381  0.42669  1.0000
  C   C25       1.0  0.28468  0.28297  0.94802  1.0000
  C   C26       1.0  0.43273  0.28369  0.55209  1.0000
  C   C27       1.0  0.71531  0.71702  0.05197  1.0000
  C   C28       1.0  0.56726  0.71632  0.44792  1.0000
  C   C29       1.0  0.38971  0.39340  0.97340  1.0000
  C   C30       1.0  0.21719  0.39393  0.52667  1.0000
  C   C31       1.0  0.61028  0.60660  0.02660  1.0000
  C   C32       1.0  0.78281  0.60607  0.47334  1.0000
  C   C33       1.0  0.54871  0.45772  0.92223  1.0000
  C   C34       1.0  0.99180  0.45760  0.57757  1.0000
  C   C35       1.0  0.45128  0.54229  0.07777  1.0000
  C   C36       1.0  0.00818  0.54240  0.42244  1.0000
  C   C37       1.0  0.34208  0.43840  0.05124  1.0000
  C   C38       1.0  0.22168  0.43898  0.44899  1.0000
  C   C39       1.0  0.65791  0.56160  0.94876  1.0000
  C   C40       1.0  0.77832  0.56103  0.55101  1.0000
  N   N1        1.0  0.79218  0.00809  0.82378  1.0000
  N   N2        1.0  0.20047  0.00801  0.67597  1.0000
  N   N3        1.0  0.20782  0.99191  0.17622  1.0000
  N   N4        1.0  0.79953  0.99199  0.32403  1.0000
  N   N5        1.0  0.29540  0.41084  0.74963  1.0000
  N   N6        1.0  0.70460  0.58916  0.25037  1.0000
  O   O1        1.0  0.12156  0.34040  0.75382  1.0000
  O   O2        1.0  0.53966  0.33969  0.74594  1.0000
  O   O3        1.0  0.87845  0.65959  0.24618  1.0000
  O   O4        1.0  0.46033  0.66032  0.25406  1.0000
  O   O5        1.0  0.22720  0.54803  0.74916  1.0000
  O   O6        1.0  0.77279  0.45197  0.25084  1.0000
