data_image0
_chemical_formula_structural       Cu4H20C28S2I4N4O2
_chemical_formula_sum              "Cu4 H20 C28 S2 I4 N4 O2"
_cell_length_a       4.05518
_cell_length_b       12.5505
_cell_length_c       15.8009
_cell_angle_alpha    100.276
_cell_angle_beta     90.0001
_cell_angle_gamma    89.9995

_space_group_name_H-M_alt    "P 1"
_space_group_IT_number       1

loop_
  _space_group_symop_operation_xyz
  'x, y, z'

loop_
  _atom_site_type_symbol
  _atom_site_label
  _atom_site_symmetry_multiplicity
  _atom_site_fract_x
  _atom_site_fract_y
  _atom_site_fract_z
  _atom_site_occupancy
  Cu  Cu1       1.0  0.65662  0.05559  0.54327  1.0000
  Cu  Cu2       1.0  0.15662  0.94442  0.45673  1.0000
  Cu  Cu3       1.0  0.98184  0.18391  0.66151  1.0000
  Cu  Cu4       1.0  0.48184  0.81610  0.33849  1.0000
  H   H1        1.0  0.20967  0.38038  0.71876  1.0000
  H   H2        1.0  0.70968  0.61961  0.28124  1.0000
  H   H3        1.0  0.66381  0.03415  0.76144  1.0000
  H   H4        1.0  0.16383  0.96586  0.23856  1.0000
  H   H5        1.0  0.45851  0.26471  0.04988  1.0000
  H   H6        1.0  0.95849  0.73528  0.95012  1.0000
  H   H7        1.0  0.75530  0.82356  0.76031  1.0000
  H   H8        1.0  0.25530  0.17644  0.23969  1.0000
  H   H9        1.0  0.34934  0.96043  0.87380  1.0000
  H   H10       1.0  0.84936  0.03957  0.12619  1.0000
  H   H11       1.0  0.69898  0.77154  0.60136  1.0000
  H   H12       1.0  0.19898  0.22847  0.39864  1.0000
  H   H13       1.0  0.50750  0.70552  0.85601  1.0000
  H   H14       1.0  0.00750  0.29448  0.14400  1.0000
  H   H15       1.0  0.25302  0.07312  0.01720  1.0000
  H   H16       1.0  0.75300  0.92687  0.98280  1.0000
  H   H17       1.0  0.39562  0.60501  0.53813  1.0000
  H   H18       1.0  0.89563  0.39500  0.46187  1.0000
  H   H19       1.0  0.14871  0.48858  0.63233  1.0000
  H   H20       1.0  0.64871  0.51142  0.36767  1.0000
  C   C1        1.0  0.96470  0.34530  0.82288  1.0000
  C   C2        1.0  0.46470  0.65469  0.17712  1.0000
  C   C3        1.0  0.61962  0.08325  0.82446  1.0000
  C   C4        1.0  0.11964  0.91675  0.17554  1.0000
  C   C5        1.0  0.67289  0.25452  0.92374  1.0000
  C   C6        1.0  0.17288  0.74548  0.07626  1.0000
  C   C7        1.0  0.50256  0.21328  0.98780  1.0000
  C   C8        1.0  0.00256  0.78672  0.01220  1.0000
  C   C9        1.0  0.62142  0.75013  0.73277  1.0000
  C   C10       1.0  0.12144  0.24987  0.26723  1.0000
  C   C11       1.0  0.17416  0.52342  0.81031  1.0000
  C   C12       1.0  0.67416  0.47658  0.18970  1.0000
  C   C13       1.0  0.44608  0.04285  0.88770  1.0000
  C   C14       1.0  0.94609  0.95716  0.11230  1.0000
  C   C15       1.0  0.59130  0.72084  0.64347  1.0000
  C   C16       1.0  0.09130  0.27916  0.35653  1.0000
  C   C17       1.0  0.73460  0.19005  0.84237  1.0000
  C   C18       1.0  0.23461  0.80995  0.15763  1.0000
  C   C19       1.0  0.32227  0.58847  0.75049  1.0000
  C   C20       1.0  0.82226  0.41152  0.24951  1.0000
  C   C21       1.0  0.48606  0.68468  0.78625  1.0000
  C   C22       1.0  0.98606  0.31532  0.21375  1.0000
  C   C23       1.0  0.38970  0.10693  0.96886  1.0000
  C   C24       1.0  0.88971  0.89307  0.03114  1.0000
  C   C25       1.0  0.42481  0.62614  0.60770  1.0000
  C   C26       1.0  0.92480  0.37385  0.39230  1.0000
  C   C27       1.0  0.28982  0.56002  0.66083  1.0000
  C   C28       1.0  0.78981  0.43998  0.33917  1.0000
  S   S1        1.0  0.82936  0.38482  0.92813  1.0000
  S   S2        1.0  0.32933  0.61518  0.07187  1.0000
  I   I1        1.0  0.14106  0.97628  0.62422  1.0000
  I   I2        1.0  0.64105  0.02373  0.37578  1.0000
  I   I3        1.0  0.49221  0.26505  0.58367  1.0000
  I   I4        1.0  0.99222  0.73495  0.41633  1.0000
  N   N1        1.0  0.12149  0.41498  0.77840  1.0000
  N   N2        1.0  0.62150  0.58501  0.22159  1.0000
  N   N3        1.0  0.90385  0.24382  0.78578  1.0000
  N   N4        1.0  0.40386  0.75618  0.21422  1.0000
  O   O1        1.0  0.09538  0.56210  0.88533  1.0000
  O   O2        1.0  0.59539  0.43789  0.11466  1.0000
