data_image0
_chemical_formula_structural       Mn2H8C8N16
_chemical_formula_sum              "Mn2 H8 C8 N16"
_cell_length_a       7.5278
_cell_length_b       8.30867
_cell_length_c       8.30869
_cell_angle_alpha    95.2866
_cell_angle_beta     115.895
_cell_angle_gamma    115.894

_space_group_name_H-M_alt    "P 1"
_space_group_IT_number       1

loop_
  _space_group_symop_operation_xyz
  'x, y, z'

loop_
  _atom_site_type_symbol
  _atom_site_label
  _atom_site_symmetry_multiplicity
  _atom_site_fract_x
  _atom_site_fract_y
  _atom_site_fract_z
  _atom_site_occupancy
  Mn  Mn1       1.0  1.00000  1.00000  0.50000  1.0000
  Mn  Mn2       1.0  0.99999  0.50000  0.99999  1.0000
  H   H1        1.0  0.05314  0.24981  0.24982  1.0000
  H   H2        1.0  0.94686  0.75019  0.75018  1.0000
  H   H3        1.0  0.57412  0.06539  0.41688  1.0000
  H   H4        1.0  0.57414  0.41690  0.06540  1.0000
  H   H5        1.0  0.42588  0.93461  0.58312  1.0000
  H   H6        1.0  0.42586  0.58311  0.93460  1.0000
  H   H7        1.0  0.39234  0.23468  0.23468  1.0000
  H   H8        1.0  0.60767  0.76532  0.76532  1.0000
  C   C1        1.0  0.90584  0.24725  0.24725  1.0000
  C   C2        1.0  0.09416  0.75275  0.75275  1.0000
  C   C3        1.0  0.63883  0.14417  0.33745  1.0000
  C   C4        1.0  0.63883  0.33746  0.14418  1.0000
  C   C5        1.0  0.36117  0.85583  0.66255  1.0000
  C   C6        1.0  0.36117  0.66254  0.85582  1.0000
  C   C7        1.0  0.53997  0.23794  0.23793  1.0000
  C   C8        1.0  0.46003  0.76206  0.76207  1.0000
  N   N1        1.0  0.82202  0.14825  0.34187  1.0000
  N   N2        1.0  0.82204  0.34188  0.14826  1.0000
  N   N3        1.0  0.17798  0.85175  0.65813  1.0000
  N   N4        1.0  0.17796  0.65812  0.85174  1.0000
  N   N5        1.0  0.89908  0.02720  0.70001  1.0000
  N   N6        1.0  0.89910  0.70003  0.02720  1.0000
  N   N7        1.0  0.10092  0.97280  0.29999  1.0000
  N   N8        1.0  0.10090  0.29997  0.97280  1.0000
  N   N9        1.0  0.99998  0.16404  0.83594  1.0000
  N   N10       1.0  0.00002  0.83596  0.16406  1.0000
  N   N11       1.0  0.68296  0.72585  0.33429  1.0000
  N   N12       1.0  0.68295  0.33431  0.72586  1.0000
  N   N13       1.0  0.31704  0.27415  0.66571  1.0000
  N   N14       1.0  0.31705  0.66569  0.27414  1.0000
  N   N15       1.0  0.50000  0.69543  0.30456  1.0000
  N   N16       1.0  0.49999  0.30457  0.69544  1.0000
