data_image0
_chemical_formula_structural       Na4H24C24S8N4O20
_chemical_formula_sum              "Na4 H24 C24 S8 N4 O20"
_cell_length_a       7.91468
_cell_length_b       10.8761
_cell_length_c       11.1136
_cell_angle_alpha    90.0004
_cell_angle_beta     90.0002
_cell_angle_gamma    90.0002

_space_group_name_H-M_alt    "P 1"
_space_group_IT_number       1

loop_
  _space_group_symop_operation_xyz
  'x, y, z'

loop_
  _atom_site_type_symbol
  _atom_site_label
  _atom_site_symmetry_multiplicity
  _atom_site_fract_x
  _atom_site_fract_y
  _atom_site_fract_z
  _atom_site_occupancy
  Na  Na1       1.0  0.47771  0.19524  0.29012  1.0000
  Na  Na2       1.0  0.52228  0.69523  0.70989  1.0000
  Na  Na3       1.0  0.97771  0.19523  0.20989  1.0000
  Na  Na4       1.0  0.02228  0.69524  0.79012  1.0000
  H   H1        1.0  0.98344  0.58228  0.43066  1.0000
  H   H2        1.0  0.01654  0.08232  0.56936  1.0000
  H   H3        1.0  0.48347  0.58231  0.06935  1.0000
  H   H4        1.0  0.51655  0.08228  0.93065  1.0000
  H   H5        1.0  0.95929  0.53376  0.21206  1.0000
  H   H6        1.0  0.04074  0.03380  0.78796  1.0000
  H   H7        1.0  0.45929  0.53378  0.28795  1.0000
  H   H8        1.0  0.54071  0.03375  0.71206  1.0000
  H   H9        1.0  0.83164  0.68548  0.07132  1.0000
  H   H10       1.0  0.16844  0.18552  0.92868  1.0000
  H   H11       1.0  0.33160  0.68548  0.42868  1.0000
  H   H12       1.0  0.66836  0.18547  0.57132  1.0000
  H   H13       1.0  0.71816  0.88424  0.14646  1.0000
  H   H14       1.0  0.28190  0.38428  0.85352  1.0000
  H   H15       1.0  0.21810  0.88424  0.35353  1.0000
  H   H16       1.0  0.78184  0.38423  0.64646  1.0000
  H   H17       1.0  0.55428  0.40802  0.46337  1.0000
  H   H18       1.0  0.44571  0.90800  0.53664  1.0000
  H   H19       1.0  0.05428  0.40800  0.03664  1.0000
  H   H20       1.0  0.94572  0.90802  0.96337  1.0000
  H   H21       1.0  0.72195  0.35929  0.40544  1.0000
  H   H22       1.0  0.27804  0.85927  0.59456  1.0000
  H   H23       1.0  0.22195  0.35928  0.09456  1.0000
  H   H24       1.0  0.77805  0.85929  0.90545  1.0000
  C   C1        1.0  0.78694  0.84278  0.33042  1.0000
  C   C2        1.0  0.21307  0.34281  0.66956  1.0000
  C   C3        1.0  0.28693  0.84279  0.16957  1.0000
  C   C4        1.0  0.71305  0.34277  0.83042  1.0000
  C   C5        1.0  0.86159  0.75898  0.40899  1.0000
  C   C6        1.0  0.13841  0.25902  0.59102  1.0000
  C   C7        1.0  0.36159  0.75900  0.09102  1.0000
  C   C8        1.0  0.63840  0.25898  0.90899  1.0000
  C   C9        1.0  0.92407  0.64681  0.36902  1.0000
  C   C10       1.0  0.07592  0.14685  0.63098  1.0000
  C   C11       1.0  0.42409  0.64683  0.13098  1.0000
  C   C12       1.0  0.57592  0.14681  0.86902  1.0000
  C   C13       1.0  0.91129  0.62097  0.24615  1.0000
  C   C14       1.0  0.08873  0.12100  0.75387  1.0000
  C   C15       1.0  0.41129  0.62099  0.25387  1.0000
  C   C16       1.0  0.58870  0.12096  0.74614  1.0000
  C   C17       1.0  0.83899  0.70608  0.16696  1.0000
  C   C18       1.0  0.16106  0.20611  0.83304  1.0000
  C   C19       1.0  0.33896  0.70609  0.33303  1.0000
  C   C20       1.0  0.66101  0.20607  0.66695  1.0000
  C   C21       1.0  0.77521  0.81837  0.20803  1.0000
  C   C22       1.0  0.22484  0.31841  0.79198  1.0000
  C   C23       1.0  0.27517  0.81838  0.29198  1.0000
  C   C24       1.0  0.72479  0.31836  0.70802  1.0000
  S   S1        1.0  0.72901  0.98013  0.40634  1.0000
  S   S2        1.0  0.27099  0.48017  0.59364  1.0000
  S   S3        1.0  0.22902  0.98015  0.09365  1.0000
  S   S4        1.0  0.77098  0.48013  0.90633  1.0000
  S   S5        1.0  0.87480  0.81909  0.55702  1.0000
  S   S6        1.0  0.12520  0.31911  0.44299  1.0000
  S   S7        1.0  0.37480  0.81909  0.94299  1.0000
  S   S8        1.0  0.62520  0.31909  0.05701  1.0000
  N   N1        1.0  0.76647  0.94108  0.54185  1.0000
  N   N2        1.0  0.23348  0.44111  0.45813  1.0000
  N   N3        1.0  0.26651  0.94109  0.95814  1.0000
  N   N4        1.0  0.73352  0.44107  0.04185  1.0000
  O   O1        1.0  0.54801  0.00696  0.39434  1.0000
  O   O2        1.0  0.45200  0.50698  0.60562  1.0000
  O   O3        1.0  0.04800  0.00697  0.10563  1.0000
  O   O4        1.0  0.95197  0.50696  0.89433  1.0000
  O   O5        1.0  0.83677  0.07954  0.36312  1.0000
  O   O6        1.0  0.16327  0.57957  0.63688  1.0000
  O   O7        1.0  0.33674  0.07955  0.13688  1.0000
  O   O8        1.0  0.66321  0.57954  0.86311  1.0000
  O   O9        1.0  0.79558  0.73479  0.64291  1.0000
  O   O10       1.0  0.20442  0.23480  0.35710  1.0000
  O   O11       1.0  0.29557  0.73479  0.85711  1.0000
  O   O12       1.0  0.70441  0.23479  0.14291  1.0000
  O   O13       1.0  0.05094  0.84440  0.58737  1.0000
  O   O14       1.0  0.94903  0.34439  0.41263  1.0000
  O   O15       1.0  0.55096  0.84438  0.91263  1.0000
  O   O16       1.0  0.44905  0.34440  0.08736  1.0000
  O   O17       1.0  0.59849  0.35637  0.39860  1.0000
  O   O18       1.0  0.40149  0.85636  0.60141  1.0000
  O   O19       1.0  0.09850  0.35637  0.10141  1.0000
  O   O20       1.0  0.90150  0.85637  0.89860  1.0000
