data_image0
_chemical_formula_structural       Cu3H18C8S2N12O6
_chemical_formula_sum              "Cu3 H18 C8 S2 N12 O6"
_cell_length_a       8.35596
_cell_length_b       8.55152
_cell_length_c       9.42926
_cell_angle_alpha    90.3607
_cell_angle_beta     112.246
_cell_angle_gamma    115.864

_space_group_name_H-M_alt    "P 1"
_space_group_IT_number       1

loop_
  _space_group_symop_operation_xyz
  'x, y, z'

loop_
  _atom_site_type_symbol
  _atom_site_label
  _atom_site_symmetry_multiplicity
  _atom_site_fract_x
  _atom_site_fract_y
  _atom_site_fract_z
  _atom_site_occupancy
  Cu  Cu1       1.0  0.18201  0.18704  0.06182  1.0000
  Cu  Cu2       1.0  0.81814  0.81317  0.93844  1.0000
  Cu  Cu3       1.0  0.50006  0.50019  0.99980  1.0000
  H   H1        1.0  0.91157  0.19508  0.20998  1.0000
  H   H2        1.0  0.08777  0.80378  0.78949  1.0000
  H   H3        1.0  0.82538  0.19810  0.35708  1.0000
  H   H4        1.0  0.17435  0.80170  0.64247  1.0000
  H   H5        1.0  0.66875  0.17241  0.15239  1.0000
  H   H6        1.0  0.33067  0.82660  0.84705  1.0000
  H   H7        1.0  0.38699  0.91369  0.15879  1.0000
  H   H8        1.0  0.61255  0.08574  0.84141  1.0000
  H   H9        1.0  0.51738  0.91773  0.36329  1.0000
  H   H10       1.0  0.48243  0.08254  0.63710  1.0000
  H   H11       1.0  0.38580  0.71351  0.22022  1.0000
  H   H12       1.0  0.61393  0.28629  0.78075  1.0000
  H   H13       1.0  0.29802  0.42206  0.45757  1.0000
  H   H14       1.0  0.70319  0.57942  0.54196  1.0000
  H   H15       1.0  0.33081  0.64256  0.45830  1.0000
  H   H16       1.0  0.67002  0.35880  0.54182  1.0000
  H   H17       1.0  0.14219  0.48044  0.50433  1.0000
  H   H18       1.0  0.85846  0.52022  0.49510  1.0000
  C   C1        1.0  0.78193  0.14382  0.23491  1.0000
  C   C2        1.0  0.21754  0.85538  0.76473  1.0000
  C   C3        1.0  0.47070  0.85846  0.24185  1.0000
  C   C4        1.0  0.52896  0.14129  0.75867  1.0000
  C   C5        1.0  0.29246  0.53009  0.51604  1.0000
  C   C6        1.0  0.70837  0.47096  0.48373  1.0000
  C   C7        1.0  0.43282  0.58052  0.68652  1.0000
  C   C8        1.0  0.56765  0.42003  0.31329  1.0000
  S   S1        1.0  0.68706  0.90804  0.21373  1.0000
  S   S2        1.0  0.31244  0.09125  0.78665  1.0000
  N   N1        1.0  0.92970  0.04799  0.87207  1.0000
  N   N2        1.0  0.06986  0.95255  0.12856  1.0000
  N   N3        1.0  0.87851  0.06922  0.73800  1.0000
  N   N4        1.0  0.12152  0.93089  0.26246  1.0000
  N   N5        1.0  0.82453  0.08782  0.60973  1.0000
  N   N6        1.0  0.17581  0.91192  0.39062  1.0000
  N   N7        1.0  0.24428  0.42723  0.01457  1.0000
  N   N8        1.0  0.75587  0.57276  0.98509  1.0000
  N   N9        1.0  0.11725  0.45173  0.91604  1.0000
  N   N10       1.0  0.88268  0.54805  0.08369  1.0000
  N   N11       1.0  0.99774  0.48012  0.82707  1.0000
  N   N12       1.0  0.00191  0.51937  0.17267  1.0000
  O   O1        1.0  0.60321  0.71305  0.72697  1.0000
  O   O2        1.0  0.39730  0.28760  0.27319  1.0000
  O   O3        1.0  0.36859  0.48539  0.77555  1.0000
  O   O4        1.0  0.63164  0.51474  0.22397  1.0000
  O   O5        1.0  0.60989  0.83557  0.03816  1.0000
  O   O6        1.0  0.38933  0.16308  0.96230  1.0000
