data_image0
_chemical_formula_structural       Cu2H20C28N20
_chemical_formula_sum              "Cu2 H20 C28 N20"
_cell_length_a       8.92231
_cell_length_b       9.21829
_cell_length_c       9.9265
_cell_angle_alpha    80.3731
_cell_angle_beta     68.1913
_cell_angle_gamma    70.3825

_space_group_name_H-M_alt    "P 1"
_space_group_IT_number       1

loop_
  _space_group_symop_operation_xyz
  'x, y, z'

loop_
  _atom_site_type_symbol
  _atom_site_label
  _atom_site_symmetry_multiplicity
  _atom_site_fract_x
  _atom_site_fract_y
  _atom_site_fract_z
  _atom_site_occupancy
  Cu  Cu1       1.0  0.17323  0.38653  0.07349  1.0000
  Cu  Cu2       1.0  0.82677  0.61347  0.92651  1.0000
  H   H1        1.0  0.38518  0.07860  0.94252  1.0000
  H   H2        1.0  0.61482  0.92140  0.05747  1.0000
  H   H3        1.0  0.64675  0.98069  0.73002  1.0000
  H   H4        1.0  0.35326  0.01931  0.26998  1.0000
  H   H5        1.0  0.79789  0.16979  0.57502  1.0000
  H   H6        1.0  0.20211  0.83022  0.42497  1.0000
  H   H7        1.0  0.68556  0.44257  0.64329  1.0000
  H   H8        1.0  0.31444  0.55744  0.35671  1.0000
  H   H9        1.0  0.03526  0.71971  0.13773  1.0000
  H   H10       1.0  0.96474  0.28029  0.86227  1.0000
  H   H11       1.0  0.13139  0.96061  0.02899  1.0000
  H   H12       1.0  0.86860  0.03939  0.97101  1.0000
  H   H13       1.0  0.42607  0.81927  0.56077  1.0000
  H   H14       1.0  0.57393  0.18073  0.43923  1.0000
  H   H15       1.0  0.66678  0.87044  0.34345  1.0000
  H   H16       1.0  0.33321  0.12956  0.65655  1.0000
  H   H17       1.0  0.95778  0.78233  0.36280  1.0000
  H   H18       1.0  0.04222  0.21766  0.63720  1.0000
  H   H19       1.0  0.99723  0.64404  0.58923  1.0000
  H   H20       1.0  0.00277  0.35595  0.41076  1.0000
  C   C1        1.0  0.45884  0.15394  0.87529  1.0000
  C   C2        1.0  0.54116  0.84606  0.12471  1.0000
  C   C3        1.0  0.60355  0.10115  0.75603  1.0000
  C   C4        1.0  0.39645  0.89885  0.24396  1.0000
  C   C5        1.0  0.68733  0.20589  0.67184  1.0000
  C   C6        1.0  0.31267  0.79411  0.32816  1.0000
  C   C7        1.0  0.62473  0.35901  0.71058  1.0000
  C   C8        1.0  0.37527  0.64100  0.28942  1.0000
  C   C9        1.0  0.47932  0.40461  0.83204  1.0000
  C   C10       1.0  0.52068  0.59540  0.16796  1.0000
  C   C11       1.0  0.39340  0.56400  0.88144  1.0000
  C   C12       1.0  0.60660  0.43600  0.11856  1.0000
  C   C13       1.0  0.15312  0.71670  0.04865  1.0000
  C   C14       1.0  0.84688  0.28330  0.95135  1.0000
  C   C15       1.0  0.20434  0.84653  0.98721  1.0000
  C   C16       1.0  0.79566  0.15346  0.01280  1.0000
  C   C17       1.0  0.44125  0.69861  0.81959  1.0000
  C   C18       1.0  0.55874  0.30139  0.18041  1.0000
  C   C19       1.0  0.58860  0.70952  0.68705  1.0000
  C   C20       1.0  0.41139  0.29048  0.31296  1.0000
  C   C21       1.0  0.55520  0.78357  0.56165  1.0000
  C   C22       1.0  0.44480  0.21643  0.43835  1.0000
  C   C23       1.0  0.68861  0.81037  0.44194  1.0000
  C   C24       1.0  0.31138  0.18963  0.55806  1.0000
  C   C25       1.0  0.85015  0.76046  0.45163  1.0000
  C   C26       1.0  0.14985  0.23954  0.54836  1.0000
  C   C27       1.0  0.87205  0.68476  0.57971  1.0000
  C   C28       1.0  0.12794  0.31523  0.42029  1.0000
  N   N1        1.0  0.39874  0.30086  0.91238  1.0000
  N   N2        1.0  0.60126  0.69914  0.08762  1.0000
  N   N3        1.0  0.24791  0.57851  0.99627  1.0000
  N   N4        1.0  0.75209  0.42149  0.00373  1.0000
  N   N5        1.0  0.34630  0.83729  0.87348  1.0000
  N   N6        1.0  0.65370  0.16271  0.12653  1.0000
  N   N7        1.0  0.74426  0.65992  0.69747  1.0000
  N   N8        1.0  0.25574  0.34008  0.30253  1.0000
  N   N9        1.0  0.12470  0.18829  0.11142  1.0000
  N   N10       1.0  0.87531  0.81171  0.88857  1.0000
  N   N11       1.0  0.03101  0.14100  0.21874  1.0000
  N   N12       1.0  0.96899  0.85900  0.78125  1.0000
  N   N13       1.0  0.94471  0.08446  0.31823  1.0000
  N   N14       1.0  0.05529  0.91553  0.68177  1.0000
  N   N15       1.0  0.94282  0.51625  0.17948  1.0000
  N   N16       1.0  0.05718  0.48375  0.82052  1.0000
  N   N17       1.0  0.83377  0.47290  0.27437  1.0000
  N   N18       1.0  0.16623  0.52709  0.72563  1.0000
  N   N19       1.0  0.72273  0.43760  0.36697  1.0000
  N   N20       1.0  0.27727  0.56240  0.63303  1.0000
