data_image0
_chemical_formula_structural       Cu2H20C32N12O4
_chemical_formula_sum              "Cu2 H20 C32 N12 O4"
_cell_length_a       9.0244
_cell_length_b       9.23661
_cell_length_c       9.89928
_cell_angle_alpha    80.0113
_cell_angle_beta     67.963
_cell_angle_gamma    70.5731

_space_group_name_H-M_alt    "P 1"
_space_group_IT_number       1

loop_
  _space_group_symop_operation_xyz
  'x, y, z'

loop_
  _atom_site_type_symbol
  _atom_site_label
  _atom_site_symmetry_multiplicity
  _atom_site_fract_x
  _atom_site_fract_y
  _atom_site_fract_z
  _atom_site_occupancy
  Cu  Cu1       1.0  0.17009  0.39082  0.06824  1.0000
  Cu  Cu2       1.0  0.82991  0.60918  0.93175  1.0000
  H   H1        1.0  0.37927  0.08266  0.94704  1.0000
  H   H2        1.0  0.62073  0.91734  0.05296  1.0000
  H   H3        1.0  0.64073  0.98234  0.73637  1.0000
  H   H4        1.0  0.35928  0.01766  0.26363  1.0000
  H   H5        1.0  0.79265  0.17023  0.57814  1.0000
  H   H6        1.0  0.20735  0.82976  0.42187  1.0000
  H   H7        1.0  0.68393  0.44271  0.64312  1.0000
  H   H8        1.0  0.31608  0.55729  0.35688  1.0000
  H   H9        1.0  0.03821  0.71912  0.13637  1.0000
  H   H10       1.0  0.96179  0.28087  0.86363  1.0000
  H   H11       1.0  0.13721  0.95970  0.02961  1.0000
  H   H12       1.0  0.86279  0.04030  0.97039  1.0000
  H   H13       1.0  0.42931  0.83069  0.55685  1.0000
  H   H14       1.0  0.57069  0.16932  0.44315  1.0000
  H   H15       1.0  0.67122  0.88159  0.34134  1.0000
  H   H16       1.0  0.32878  0.11841  0.65866  1.0000
  H   H17       1.0  0.95745  0.78624  0.36286  1.0000
  H   H18       1.0  0.04255  0.21376  0.63715  1.0000
  H   H19       1.0  0.99126  0.63959  0.59042  1.0000
  H   H20       1.0  0.00874  0.36041  0.40959  1.0000
  C   C1        1.0  0.45385  0.15675  0.87846  1.0000
  C   C2        1.0  0.54615  0.84325  0.12154  1.0000
  C   C3        1.0  0.59825  0.10292  0.76017  1.0000
  C   C4        1.0  0.40175  0.89707  0.23984  1.0000
  C   C5        1.0  0.68247  0.20690  0.67443  1.0000
  C   C6        1.0  0.31753  0.79310  0.32558  1.0000
  C   C7        1.0  0.62178  0.36003  0.71099  1.0000
  C   C8        1.0  0.37822  0.63997  0.28902  1.0000
  C   C9        1.0  0.47688  0.40664  0.83160  1.0000
  C   C10       1.0  0.52313  0.59336  0.16840  1.0000
  C   C11       1.0  0.39282  0.56563  0.87955  1.0000
  C   C12       1.0  0.60718  0.43437  0.12045  1.0000
  C   C13       1.0  0.15547  0.71694  0.04766  1.0000
  C   C14       1.0  0.84453  0.28306  0.95234  1.0000
  C   C15       1.0  0.20811  0.84649  0.98655  1.0000
  C   C16       1.0  0.79189  0.15351  0.01345  1.0000
  C   C17       1.0  0.44086  0.69996  0.81671  1.0000
  C   C18       1.0  0.55914  0.30004  0.18329  1.0000
  C   C19       1.0  0.58737  0.71174  0.68396  1.0000
  C   C20       1.0  0.41262  0.28826  0.31604  1.0000
  C   C21       1.0  0.55656  0.79101  0.55866  1.0000
  C   C22       1.0  0.44344  0.20899  0.44135  1.0000
  C   C23       1.0  0.69052  0.81827  0.44001  1.0000
  C   C24       1.0  0.30948  0.18174  0.55999  1.0000
  C   C25       1.0  0.84959  0.76435  0.45092  1.0000
  C   C26       1.0  0.15040  0.23566  0.54909  1.0000
  C   C27       1.0  0.86846  0.68401  0.57890  1.0000
  C   C28       1.0  0.13153  0.31599  0.42110  1.0000
  C   C29       1.0  0.02462  0.14061  0.22041  1.0000
  C   C30       1.0  0.97539  0.85939  0.77957  1.0000
  C   C31       1.0  0.83266  0.48200  0.27973  1.0000
  C   C32       1.0  0.16734  0.51800  0.72027  1.0000
  N   N1        1.0  0.39507  0.30384  0.91290  1.0000
  N   N2        1.0  0.60493  0.69615  0.08710  1.0000
  N   N3        1.0  0.24788  0.58005  0.99418  1.0000
  N   N4        1.0  0.75211  0.41994  0.00582  1.0000
  N   N5        1.0  0.34778  0.83784  0.87149  1.0000
  N   N6        1.0  0.65221  0.16216  0.12850  1.0000
  N   N7        1.0  0.74049  0.65795  0.69516  1.0000
  N   N8        1.0  0.25951  0.34205  0.30484  1.0000
  N   N9        1.0  0.11815  0.19625  0.11936  1.0000
  N   N10       1.0  0.88186  0.80374  0.88062  1.0000
  N   N11       1.0  0.94542  0.51455  0.17911  1.0000
  N   N12       1.0  0.05459  0.48544  0.82089  1.0000
  O   O1        1.0  0.93567  0.07580  0.31671  1.0000
  O   O2        1.0  0.06434  0.92421  0.68328  1.0000
  O   O3        1.0  0.71631  0.45484  0.37962  1.0000
  O   O4        1.0  0.28368  0.54516  0.62037  1.0000
