data_image0
_chemical_formula_structural       Cu4H40C20N20O4
_chemical_formula_sum              "Cu4 H40 C20 N20 O4"
_cell_length_a       7.90017
_cell_length_b       9.01706
_cell_length_c       11.3796
_cell_angle_alpha    89.9996
_cell_angle_beta     90.0004
_cell_angle_gamma    101.082

_space_group_name_H-M_alt    "P 1"
_space_group_IT_number       1

loop_
  _space_group_symop_operation_xyz
  'x, y, z'

loop_
  _atom_site_type_symbol
  _atom_site_label
  _atom_site_symmetry_multiplicity
  _atom_site_fract_x
  _atom_site_fract_y
  _atom_site_fract_z
  _atom_site_occupancy
  Cu  Cu1       1.0  0.31994  0.00733  0.07766  1.0000
  Cu  Cu2       1.0  0.18007  0.49267  0.57766  1.0000
  Cu  Cu3       1.0  0.68006  0.99266  0.92234  1.0000
  Cu  Cu4       1.0  0.81994  0.50734  0.42234  1.0000
  H   H1        1.0  0.14679  0.36264  0.11002  1.0000
  H   H2        1.0  0.35320  0.13735  0.61002  1.0000
  H   H3        1.0  0.85319  0.63733  0.88997  1.0000
  H   H4        1.0  0.64681  0.86266  0.38998  1.0000
  H   H5        1.0  0.07989  0.24509  0.23259  1.0000
  H   H6        1.0  0.42011  0.25490  0.73258  1.0000
  H   H7        1.0  0.92009  0.75489  0.76741  1.0000
  H   H8        1.0  0.57990  0.74512  0.26741  1.0000
  H   H9        1.0  0.44029  0.34889  0.12840  1.0000
  H   H10       1.0  0.05970  0.15111  0.62841  1.0000
  H   H11       1.0  0.55969  0.65110  0.87159  1.0000
  H   H12       1.0  0.94031  0.84889  0.37160  1.0000
  H   H13       1.0  0.37626  0.36254  0.27712  1.0000
  H   H14       1.0  0.12374  0.13746  0.77712  1.0000
  H   H15       1.0  0.62371  0.63746  0.72288  1.0000
  H   H16       1.0  0.87628  0.86255  0.22288  1.0000
  H   H17       1.0  0.64473  0.24332  0.31020  1.0000
  H   H18       1.0  0.85528  0.25670  0.81021  1.0000
  H   H19       1.0  0.35526  0.75670  0.68979  1.0000
  H   H20       1.0  0.14474  0.74331  0.18979  1.0000
  H   H21       1.0  0.64430  0.06304  0.24425  1.0000
  H   H22       1.0  0.85571  0.43697  0.74425  1.0000
  H   H23       1.0  0.35570  0.93698  0.75576  1.0000
  H   H24       1.0  0.14430  0.56303  0.25575  1.0000
  H   H25       1.0  0.66406  0.22549  0.15367  1.0000
  H   H26       1.0  0.83594  0.27452  0.65368  1.0000
  H   H27       1.0  0.33593  0.77451  0.84632  1.0000
  H   H28       1.0  0.16407  0.72549  0.34632  1.0000
  H   H29       1.0  0.37401  0.96278  0.34111  1.0000
  H   H30       1.0  0.12601  0.53723  0.84111  1.0000
  H   H31       1.0  0.62600  0.03724  0.65890  1.0000
  H   H32       1.0  0.87400  0.46278  0.15889  1.0000
  H   H33       1.0  0.19193  0.05002  0.32057  1.0000
  H   H34       1.0  0.30809  0.44998  0.82057  1.0000
  H   H35       1.0  0.80807  0.94998  0.67944  1.0000
  H   H36       1.0  0.69193  0.55003  0.17943  1.0000
  H   H37       1.0  0.37088  0.14266  0.40603  1.0000
  H   H38       1.0  0.12914  0.35735  0.90603  1.0000
  H   H39       1.0  0.62912  0.85735  0.59397  1.0000
  H   H40       1.0  0.87088  0.64266  0.09396  1.0000
  C   C1        1.0  0.00140  0.92566  0.96979  1.0000
  C   C2        1.0  0.49860  0.57433  0.46979  1.0000
  C   C3        1.0  0.99859  0.07431  0.03021  1.0000
  C   C4        1.0  0.50141  0.42568  0.53021  1.0000
  C   C5        1.0  0.17005  0.26240  0.15795  1.0000
  C   C6        1.0  0.32994  0.23759  0.65795  1.0000
  C   C7        1.0  0.82993  0.73758  0.84205  1.0000
  C   C8        1.0  0.67007  0.76242  0.34205  1.0000
  C   C9        1.0  0.35766  0.29023  0.19808  1.0000
  C   C10       1.0  0.14234  0.20977  0.69809  1.0000
  C   C11       1.0  0.64232  0.70977  0.80191  1.0000
  C   C12       1.0  0.85767  0.79023  0.30192  1.0000
  C   C13       1.0  0.60334  0.17134  0.23305  1.0000
  C   C14       1.0  0.89668  0.32867  0.73305  1.0000
  C   C15       1.0  0.39666  0.82867  0.76695  1.0000
  C   C16       1.0  0.10334  0.67133  0.26695  1.0000
  C   C17       1.0  0.33265  0.07088  0.32842  1.0000
  C   C18       1.0  0.16737  0.42912  0.82842  1.0000
  C   C19       1.0  0.66735  0.92912  0.67158  1.0000
  C   C20       1.0  0.83264  0.57089  0.17158  1.0000
  N   N1        1.0  0.14345  0.12894  0.08394  1.0000
  N   N2        1.0  0.35654  0.37105  0.58394  1.0000
  N   N3        1.0  0.85652  0.87104  0.91605  1.0000
  N   N4        1.0  0.64347  0.62895  0.41605  1.0000
  N   N5        1.0  0.41476  0.14536  0.22165  1.0000
  N   N6        1.0  0.08525  0.35465  0.72165  1.0000
  N   N7        1.0  0.58524  0.85464  0.77835  1.0000
  N   N8        1.0  0.91476  0.64536  0.27835  1.0000
  N   N9        1.0  0.48479  0.87008  0.07898  1.0000
  N   N10       1.0  0.01521  0.62992  0.57898  1.0000
  N   N11       1.0  0.51521  0.12992  0.92102  1.0000
  N   N12       1.0  0.98479  0.37008  0.42102  1.0000
  N   N13       1.0  0.43073  0.73532  0.07083  1.0000
  N   N14       1.0  0.06926  0.76468  0.57084  1.0000
  N   N15       1.0  0.56926  0.26468  0.92917  1.0000
  N   N16       1.0  0.93074  0.23532  0.42917  1.0000
  N   N17       1.0  0.38514  0.60468  0.06349  1.0000
  N   N18       1.0  0.11485  0.89531  0.56351  1.0000
  N   N19       1.0  0.61486  0.39531  0.93650  1.0000
  N   N20       1.0  0.88514  0.10468  0.43651  1.0000
  O   O1        1.0  0.13708  0.86770  0.97627  1.0000
  O   O2        1.0  0.36292  0.63229  0.47627  1.0000
  O   O3        1.0  0.86290  0.13228  0.02373  1.0000
  O   O4        1.0  0.63709  0.36771  0.52373  1.0000
