data_image0
_chemical_formula_structural       Co2H16C22N4O10
_chemical_formula_sum              "Co2 H16 C22 N4 O10"
_cell_length_a       6.18248
_cell_length_b       8.47794
_cell_length_c       11.0588
_cell_angle_alpha    85.2858
_cell_angle_beta     87.2482
_cell_angle_gamma    85.5574

_space_group_name_H-M_alt    "P 1"
_space_group_IT_number       1

loop_
  _space_group_symop_operation_xyz
  'x, y, z'

loop_
  _atom_site_type_symbol
  _atom_site_label
  _atom_site_symmetry_multiplicity
  _atom_site_fract_x
  _atom_site_fract_y
  _atom_site_fract_z
  _atom_site_occupancy
  Co  Co1       1.0  0.89929  0.04343  0.12705  1.0000
  Co  Co2       1.0  0.10073  0.95657  0.87295  1.0000
  H   H1        1.0  0.88222  0.13353  0.71529  1.0000
  H   H2        1.0  0.11779  0.86646  0.28471  1.0000
  H   H3        1.0  0.11611  0.09089  0.64668  1.0000
  H   H4        1.0  0.88391  0.90910  0.35333  1.0000
  H   H5        1.0  0.13135  0.49578  0.09527  1.0000
  H   H6        1.0  0.86864  0.50423  0.90473  1.0000
  H   H7        1.0  0.12325  0.63185  0.80067  1.0000
  H   H8        1.0  0.87676  0.36816  0.19933  1.0000
  H   H9        1.0  0.55197  0.98623  0.75918  1.0000
  H   H10       1.0  0.44807  0.01377  0.24083  1.0000
  H   H11       1.0  0.37132  0.45093  0.68032  1.0000
  H   H12       1.0  0.62867  0.54907  0.31967  1.0000
  H   H13       1.0  0.81299  0.82514  0.63279  1.0000
  H   H14       1.0  0.18703  0.17485  0.36723  1.0000
  H   H15       1.0  0.70739  0.39876  0.56562  1.0000
  H   H16       1.0  0.29259  0.60124  0.43438  1.0000
  C   C1        1.0  0.29455  0.76793  0.12265  1.0000
  C   C2        1.0  0.70544  0.23206  0.87737  1.0000
  C   C3        1.0  0.40826  0.63353  0.05778  1.0000
  C   C4        1.0  0.59173  0.36646  0.94222  1.0000
  C   C5        1.0  0.29420  0.49848  0.05345  1.0000
  C   C6        1.0  0.70577  0.50152  0.94653  1.0000
  C   C7        1.0  0.61849  0.63501  0.00367  1.0000
  C   C8        1.0  0.38150  0.36500  0.99632  1.0000
  C   C9        1.0  0.27789  0.66856  0.76161  1.0000
  C   C10       1.0  0.72211  0.33144  0.23839  1.0000
  C   C11       1.0  0.51664  0.86799  0.73753  1.0000
  C   C12       1.0  0.48337  0.13201  0.26249  1.0000
  C   C13       1.0  0.75522  0.77300  0.00547  1.0000
  C   C14       1.0  0.24479  0.22700  0.99453  1.0000
  C   C15       1.0  0.41475  0.57025  0.69324  1.0000
  C   C16       1.0  0.58525  0.42975  0.30677  1.0000
  C   C17       1.0  0.66092  0.77773  0.66660  1.0000
  C   C18       1.0  0.33908  0.22227  0.33341  1.0000
  C   C19       1.0  0.61215  0.62394  0.64400  1.0000
  C   C20       1.0  0.38785  0.37606  0.35600  1.0000
  C   C21       1.0  0.75757  0.51795  0.57552  1.0000
  C   C22       1.0  0.24240  0.48205  0.42447  1.0000
  N   N1        1.0  0.32807  0.81465  0.78570  1.0000
  N   N2        1.0  0.67194  0.18535  0.21431  1.0000
  N   N3        1.0  0.94293  0.56060  0.52928  1.0000
  N   N4        1.0  0.05706  0.43941  0.47071  1.0000
  O   O1        1.0  0.19575  0.88333  0.06129  1.0000
  O   O2        1.0  0.80424  0.11668  0.93871  1.0000
  O   O3        1.0  0.29060  0.75209  0.23774  1.0000
  O   O4        1.0  0.70939  0.24791  0.76226  1.0000
  O   O5        1.0  0.89324  0.79065  0.91683  1.0000
  O   O6        1.0  0.10676  0.20935  0.08316  1.0000
  O   O7        1.0  0.27245  0.14089  0.90504  1.0000
  O   O8        1.0  0.72755  0.85911  0.09496  1.0000
  O   O9        1.0  0.00298  0.04461  0.69925  1.0000
  O   O10       1.0  0.99703  0.95539  0.30075  1.0000
