data_image0
_chemical_formula_structural       Bi4H20C24Br8
_chemical_formula_sum              "Bi4 H20 C24 Br8"
_cell_length_a       7.81869
_cell_length_b       8.79576
_cell_length_c       13.0715
_cell_angle_alpha    109.671
_cell_angle_beta     89.9977
_cell_angle_gamma    90.0007

_space_group_name_H-M_alt    "P 1"
_space_group_IT_number       1

loop_
  _space_group_symop_operation_xyz
  'x, y, z'

loop_
  _atom_site_type_symbol
  _atom_site_label
  _atom_site_symmetry_multiplicity
  _atom_site_fract_x
  _atom_site_fract_y
  _atom_site_fract_z
  _atom_site_occupancy
  Bi  Bi1       1.0  0.75003  0.19372  0.15736  1.0000
  Bi  Bi2       1.0  0.25000  0.80628  0.84263  1.0000
  Bi  Bi3       1.0  0.25001  0.96371  0.15749  1.0000
  Bi  Bi4       1.0  0.74999  0.03629  0.84251  1.0000
  H   H1        1.0  0.75000  0.44207  0.40555  1.0000
  H   H2        1.0  0.25000  0.55792  0.59444  1.0000
  H   H3        1.0  0.25000  0.96324  0.40558  1.0000
  H   H4        1.0  0.74999  0.03677  0.59443  1.0000
  H   H5        1.0  0.75001  0.73601  0.50137  1.0000
  H   H6        1.0  0.25000  0.26397  0.49863  1.0000
  H   H7        1.0  0.25000  0.76512  0.50124  1.0000
  H   H8        1.0  0.75000  0.23489  0.49877  1.0000
  H   H9        1.0  0.75001  0.92621  0.39577  1.0000
  H   H10       1.0  0.25000  0.07379  0.60423  1.0000
  H   H11       1.0  0.25000  0.46938  0.39570  1.0000
  H   H12       1.0  0.75000  0.53064  0.60431  1.0000
  H   H13       1.0  0.75000  0.81800  0.19422  1.0000
  H   H14       1.0  0.25000  0.18200  0.80578  1.0000
  H   H15       1.0  0.24999  0.37588  0.19394  1.0000
  H   H16       1.0  0.75000  0.62412  0.80607  1.0000
  H   H17       1.0  0.74999  0.52472  0.09701  1.0000
  H   H18       1.0  0.25000  0.47528  0.90298  1.0000
  H   H19       1.0  0.25001  0.57202  0.09692  1.0000
  H   H20       1.0  0.75000  0.42799  0.90308  1.0000
  C   C1        1.0  0.75001  0.46311  0.24469  1.0000
  C   C2        1.0  0.25000  0.53689  0.75530  1.0000
  C   C3        1.0  0.25001  0.78130  0.24463  1.0000
  C   C4        1.0  0.74998  0.21871  0.75537  1.0000
  C   C5        1.0  0.75001  0.52350  0.35839  1.0000
  C   C6        1.0  0.25000  0.47649  0.64160  1.0000
  C   C7        1.0  0.25001  0.83465  0.35832  1.0000
  C   C8        1.0  0.74999  0.16536  0.64168  1.0000
  C   C9        1.0  0.75001  0.68993  0.41276  1.0000
  C   C10       1.0  0.25000  0.31005  0.58724  1.0000
  C   C11       1.0  0.25000  0.72257  0.41265  1.0000
  C   C12       1.0  0.74999  0.27743  0.58736  1.0000
  C   C13       1.0  0.75001  0.79608  0.35389  1.0000
  C   C14       1.0  0.25000  0.20392  0.64611  1.0000
  C   C15       1.0  0.24999  0.55754  0.35378  1.0000
  C   C16       1.0  0.75000  0.44247  0.64623  1.0000
  C   C17       1.0  0.75000  0.73567  0.24062  1.0000
  C   C18       1.0  0.25000  0.26433  0.75938  1.0000
  C   C19       1.0  0.25000  0.50461  0.24049  1.0000
  C   C20       1.0  0.75000  0.49540  0.75951  1.0000
  C   C21       1.0  0.75000  0.56944  0.18561  1.0000
  C   C22       1.0  0.25000  0.43056  0.81438  1.0000
  C   C23       1.0  0.25001  0.61587  0.18552  1.0000
  C   C24       1.0  0.74999  0.38414  0.81449  1.0000
  Br  Br1       1.0  0.50006  0.15415  0.31013  1.0000
  Br  Br2       1.0  0.00006  0.84585  0.68987  1.0000
  Br  Br3       1.0  0.49993  0.84586  0.68986  1.0000
  Br  Br4       1.0  0.99992  0.15413  0.31013  1.0000
  Br  Br5       1.0  0.49867  0.22822  0.99990  1.0000
  Br  Br6       1.0  0.99869  0.77179  0.00010  1.0000
  Br  Br7       1.0  0.50133  0.77179  0.00010  1.0000
  Br  Br8       1.0  0.00133  0.22820  0.99990  1.0000
