data_image0
_chemical_formula_structural       Cd2H24C28I4N16
_chemical_formula_sum              "Cd2 H24 C28 I4 N16"
_cell_length_a       4.12353
_cell_length_b       7.47301
_cell_length_c       30.5999
_cell_angle_alpha    90.0017
_cell_angle_beta     90.0062
_cell_angle_gamma    98.3668

_space_group_name_H-M_alt    "P 1"
_space_group_IT_number       1

loop_
  _space_group_symop_operation_xyz
  'x, y, z'

loop_
  _atom_site_type_symbol
  _atom_site_label
  _atom_site_symmetry_multiplicity
  _atom_site_fract_x
  _atom_site_fract_y
  _atom_site_fract_z
  _atom_site_occupancy
  Cd  Cd1       1.0  0.00003  0.00003  1.00000  1.0000
  Cd  Cd2       1.0  0.50005  0.49999  0.50000  1.0000
  H   H1        1.0  0.84404  0.04774  0.90018  1.0000
  H   H2        1.0  0.65600  0.45225  0.40018  1.0000
  H   H3        1.0  0.15604  0.95230  0.09982  1.0000
  H   H4        1.0  0.34393  0.54772  0.59982  1.0000
  H   H5        1.0  0.60967  0.18078  0.83905  1.0000
  H   H6        1.0  0.89041  0.31921  0.33907  1.0000
  H   H7        1.0  0.39038  0.81923  0.16095  1.0000
  H   H8        1.0  0.10953  0.68077  0.66093  1.0000
  H   H9        1.0  0.56166  0.23502  0.75429  1.0000
  H   H10       1.0  0.93833  0.26496  0.25430  1.0000
  H   H11       1.0  0.43829  0.76496  0.24571  1.0000
  H   H12       1.0  0.06164  0.73503  0.74570  1.0000
  H   H13       1.0  0.14680  0.60238  0.95902  1.0000
  H   H14       1.0  0.35313  0.89758  0.45902  1.0000
  H   H15       1.0  0.85324  0.39767  0.04098  1.0000
  H   H16       1.0  0.64688  0.10240  0.54098  1.0000
  H   H17       1.0  0.19153  0.44963  0.88741  1.0000
  H   H18       1.0  0.30848  0.05034  0.38742  1.0000
  H   H19       1.0  0.80846  0.55038  0.11260  1.0000
  H   H20       1.0  0.69152  0.94965  0.61259  1.0000
  H   H21       1.0  0.05116  0.60381  0.81872  1.0000
  H   H22       1.0  0.44887  0.89619  0.31873  1.0000
  H   H23       1.0  0.94885  0.39619  0.18128  1.0000
  H   H24       1.0  0.55106  0.10379  0.68127  1.0000
  C   C1        1.0  0.91769  0.91449  0.89541  1.0000
  C   C2        1.0  0.58234  0.58551  0.39541  1.0000
  C   C3        1.0  0.08237  0.08555  0.10459  1.0000
  C   C4        1.0  0.41762  0.41446  0.60459  1.0000
  C   C5        1.0  0.93044  0.83956  0.85363  1.0000
  C   C6        1.0  0.56958  0.66043  0.35364  1.0000
  C   C7        1.0  0.06963  0.16046  0.14637  1.0000
  C   C8        1.0  0.43039  0.33956  0.64636  1.0000
  C   C9        1.0  0.69492  0.09702  0.81383  1.0000
  C   C10       1.0  0.80512  0.40298  0.31384  1.0000
  C   C11       1.0  0.30511  0.90299  0.18617  1.0000
  C   C12       1.0  0.19478  0.59700  0.68616  1.0000
  C   C13       1.0  0.84135  0.94040  0.81571  1.0000
  C   C14       1.0  0.65864  0.55961  0.31572  1.0000
  C   C15       1.0  0.15867  0.05962  0.18429  1.0000
  C   C16       1.0  0.34129  0.44036  0.68428  1.0000
  C   C17       1.0  0.08527  0.66595  0.92864  1.0000
  C   C18       1.0  0.41468  0.83403  0.42864  1.0000
  C   C19       1.0  0.91480  0.33411  0.07137  1.0000
  C   C20       1.0  0.58531  0.16594  0.57136  1.0000
  C   C21       1.0  0.11023  0.58201  0.88830  1.0000
  C   C22       1.0  0.38975  0.91797  0.38831  1.0000
  C   C23       1.0  0.88977  0.41800  0.11170  1.0000
  C   C24       1.0  0.61024  0.08202  0.61169  1.0000
  C   C25       1.0  0.03135  0.66834  0.85035  1.0000
  C   C26       1.0  0.46866  0.83168  0.35036  1.0000
  C   C27       1.0  0.96867  0.33169  0.14965  1.0000
  C   C28       1.0  0.53132  0.16830  0.64965  1.0000
  I   I1        1.0  0.54265  0.24602  0.96140  1.0000
  I   I2        1.0  0.95746  0.25397  0.46140  1.0000
  I   I3        1.0  0.45742  0.75404  0.03860  1.0000
  I   I4        1.0  0.04265  0.74602  0.53859  1.0000
  N   N1        1.0  0.99125  0.83014  0.93191  1.0000
  N   N2        1.0  0.50872  0.66984  0.43191  1.0000
  N   N3        1.0  0.00881  0.16992  0.06809  1.0000
  N   N4        1.0  0.49128  0.33013  0.56809  1.0000
  N   N5        1.0  0.66688  0.13113  0.77080  1.0000
  N   N6        1.0  0.83314  0.36887  0.27081  1.0000
  N   N7        1.0  0.33312  0.86887  0.22920  1.0000
  N   N8        1.0  0.16681  0.63112  0.72919  1.0000
  N   N9        1.0  0.89170  0.89110  0.77339  1.0000
  N   N10       1.0  0.60831  0.60889  0.27340  1.0000
  N   N11       1.0  0.10831  0.10889  0.22661  1.0000
  N   N12       1.0  0.39163  0.39108  0.72661  1.0000
  N   N13       1.0  0.78533  0.00702  0.74635  1.0000
  N   N14       1.0  0.71464  0.49296  0.24636  1.0000
  N   N15       1.0  0.21462  0.99296  0.25365  1.0000
  N   N16       1.0  0.28530  0.50701  0.75364  1.0000
