data_image0
_chemical_formula_structural       Cd4H28C32N4O32
_chemical_formula_sum              "Cd4 H28 C32 N4 O32"
_cell_length_a       5.8655
_cell_length_b       8.7688
_cell_length_c       20.7878
_cell_angle_alpha    89.9995
_cell_angle_beta     90.0001
_cell_angle_gamma    98.2035

_space_group_name_H-M_alt    "P 1"
_space_group_IT_number       1

loop_
  _space_group_symop_operation_xyz
  'x, y, z'

loop_
  _atom_site_type_symbol
  _atom_site_label
  _atom_site_symmetry_multiplicity
  _atom_site_fract_x
  _atom_site_fract_y
  _atom_site_fract_z
  _atom_site_occupancy
  Cd  Cd1       1.0  0.84060  0.15887  0.53639  1.0000
  Cd  Cd2       1.0  0.15940  0.34113  0.03639  1.0000
  Cd  Cd3       1.0  0.15940  0.84114  0.46361  1.0000
  Cd  Cd4       1.0  0.84060  0.65887  0.96361  1.0000
  H   H1        1.0  0.52439  0.35929  0.56581  1.0000
  H   H2        1.0  0.47560  0.14070  0.06581  1.0000
  H   H3        1.0  0.47560  0.64071  0.43419  1.0000
  H   H4        1.0  0.52441  0.85930  0.93419  1.0000
  H   H5        1.0  0.76711  0.47098  0.56182  1.0000
  H   H6        1.0  0.23288  0.02902  0.06182  1.0000
  H   H7        1.0  0.23287  0.52902  0.43818  1.0000
  H   H8        1.0  0.76713  0.97099  0.93818  1.0000
  H   H9        1.0  0.28372  0.14960  0.59664  1.0000
  H   H10       1.0  0.71628  0.35039  0.09665  1.0000
  H   H11       1.0  0.71628  0.85040  0.40335  1.0000
  H   H12       1.0  0.28372  0.64961  0.90335  1.0000
  H   H13       1.0  0.18610  0.27951  0.63798  1.0000
  H   H14       1.0  0.81389  0.22049  0.13799  1.0000
  H   H15       1.0  0.81390  0.72049  0.36201  1.0000
  H   H16       1.0  0.18611  0.77951  0.86201  1.0000
  H   H17       1.0  0.58524  0.76659  0.81615  1.0000
  H   H18       1.0  0.41477  0.73340  0.31614  1.0000
  H   H19       1.0  0.41475  0.23340  0.18386  1.0000
  H   H20       1.0  0.58524  0.26659  0.68386  1.0000
  H   H21       1.0  0.89462  0.61431  0.78318  1.0000
  H   H22       1.0  0.10537  0.88569  0.28318  1.0000
  H   H23       1.0  0.10537  0.38568  0.21682  1.0000
  H   H24       1.0  0.89463  0.11431  0.71683  1.0000
  H   H25       1.0  0.00367  0.60334  0.66792  1.0000
  H   H26       1.0  0.99633  0.89665  0.16792  1.0000
  H   H27       1.0  0.99631  0.39665  0.33208  1.0000
  H   H28       1.0  0.00367  0.10334  0.83209  1.0000
  C   C1        1.0  0.51447  0.82935  0.71828  1.0000
  C   C2        1.0  0.48553  0.67064  0.21828  1.0000
  C   C3        1.0  0.48553  0.17065  0.28172  1.0000
  C   C4        1.0  0.51446  0.32935  0.78172  1.0000
  C   C5        1.0  0.63069  0.75707  0.76572  1.0000
  C   C6        1.0  0.36932  0.74292  0.26572  1.0000
  C   C7        1.0  0.36930  0.24292  0.23428  1.0000
  C   C8        1.0  0.63069  0.25708  0.73429  1.0000
  C   C9        1.0  0.80502  0.67427  0.74736  1.0000
  C   C10       1.0  0.19500  0.82573  0.24736  1.0000
  C   C11       1.0  0.19497  0.32572  0.25264  1.0000
  C   C12       1.0  0.80500  0.17427  0.75264  1.0000
  C   C13       1.0  0.86642  0.66766  0.68260  1.0000
  C   C14       1.0  0.13359  0.83233  0.18260  1.0000
  C   C15       1.0  0.13358  0.33234  0.31740  1.0000
  C   C16       1.0  0.86640  0.16766  0.81740  1.0000
  C   C17       1.0  0.75760  0.74742  0.63620  1.0000
  C   C18       1.0  0.24242  0.75259  0.13620  1.0000
  C   C19       1.0  0.24242  0.25259  0.36380  1.0000
  C   C20       1.0  0.75758  0.24741  0.86380  1.0000
  C   C21       1.0  0.57635  0.82817  0.65302  1.0000
  C   C22       1.0  0.42366  0.67183  0.15302  1.0000
  C   C23       1.0  0.42365  0.17183  0.34698  1.0000
  C   C24       1.0  0.57634  0.32817  0.84698  1.0000
  C   C25       1.0  0.84869  0.75489  0.56870  1.0000
  C   C26       1.0  0.15131  0.74511  0.06870  1.0000
  C   C27       1.0  0.15132  0.24512  0.43130  1.0000
  C   C28       1.0  0.84869  0.25490  0.93130  1.0000
  C   C29       1.0  0.46505  0.90362  0.59815  1.0000
  C   C30       1.0  0.53496  0.59639  0.09815  1.0000
  C   C31       1.0  0.53495  0.09638  0.40185  1.0000
  C   C32       1.0  0.46505  0.40362  0.90185  1.0000
  N   N1        1.0  0.32474  0.90881  0.73827  1.0000
  N   N2        1.0  0.67526  0.59118  0.23827  1.0000
  N   N3        1.0  0.67526  0.09119  0.26173  1.0000
  N   N4        1.0  0.32473  0.40881  0.76172  1.0000
  O   O1        1.0  0.28706  0.92254  0.79711  1.0000
  O   O2        1.0  0.71296  0.57745  0.29711  1.0000
  O   O3        1.0  0.71292  0.07745  0.20289  1.0000
  O   O4        1.0  0.28705  0.42255  0.70289  1.0000
  O   O5        1.0  0.20738  0.96083  0.69610  1.0000
  O   O6        1.0  0.79263  0.53917  0.19610  1.0000
  O   O7        1.0  0.79262  0.03917  0.30390  1.0000
  O   O8        1.0  0.20736  0.46083  0.80390  1.0000
  O   O9        1.0  0.89266  0.63485  0.54095  1.0000
  O   O10       1.0  0.10735  0.86515  0.04095  1.0000
  O   O11       1.0  0.10732  0.36515  0.45905  1.0000
  O   O12       1.0  0.89267  0.13486  0.95905  1.0000
  O   O13       1.0  0.89430  0.88930  0.54296  1.0000
  O   O14       1.0  0.10572  0.61070  0.04295  1.0000
  O   O15       1.0  0.10571  0.11071  0.45705  1.0000
  O   O16       1.0  0.89428  0.38931  0.95705  1.0000
  O   O17       1.0  0.50633  0.05043  0.59280  1.0000
  O   O18       1.0  0.49368  0.44957  0.09280  1.0000
  O   O19       1.0  0.49367  0.94957  0.40720  1.0000
  O   O20       1.0  0.50632  0.55044  0.90720  1.0000
  O   O21       1.0  0.35492  0.81091  0.55955  1.0000
  O   O22       1.0  0.64510  0.68909  0.05955  1.0000
  O   O23       1.0  0.64508  0.18909  0.44046  1.0000
  O   O24       1.0  0.35492  0.31092  0.94046  1.0000
  O   O25       1.0  0.68794  0.36603  0.57636  1.0000
  O   O26       1.0  0.31205  0.13397  0.07636  1.0000
  O   O27       1.0  0.31205  0.63397  0.42364  1.0000
  O   O28       1.0  0.68796  0.86604  0.92364  1.0000
  O   O29       1.0  0.17457  0.22747  0.59616  1.0000
  O   O30       1.0  0.82544  0.27253  0.09617  1.0000
  O   O31       1.0  0.82544  0.77253  0.40384  1.0000
  O   O32       1.0  0.17456  0.72747  0.90383  1.0000
