data_image0
_chemical_formula_structural       Ag4H24C40N8O8
_chemical_formula_sum              "Ag4 H24 C40 N8 O8"
_cell_length_a       8.00928
_cell_length_b       8.53646
_cell_length_c       15.4009
_cell_angle_alpha    85.9437
_cell_angle_beta     88.0281
_cell_angle_gamma    75.2616

_space_group_name_H-M_alt    "P 1"
_space_group_IT_number       1

loop_
  _space_group_symop_operation_xyz
  'x, y, z'

loop_
  _atom_site_type_symbol
  _atom_site_label
  _atom_site_symmetry_multiplicity
  _atom_site_fract_x
  _atom_site_fract_y
  _atom_site_fract_z
  _atom_site_occupancy
  Ag  Ag1       1.0  0.82121  0.39898  0.51380  1.0000
  Ag  Ag2       1.0  0.17878  0.60103  0.48620  1.0000
  Ag  Ag3       1.0  0.53777  0.65485  0.51135  1.0000
  Ag  Ag4       1.0  0.46222  0.34517  0.48865  1.0000
  H   H1        1.0  0.69648  0.05904  0.92212  1.0000
  H   H2        1.0  0.30353  0.94096  0.07787  1.0000
  H   H3        1.0  0.77170  0.15403  0.77313  1.0000
  H   H4        1.0  0.22829  0.84598  0.22687  1.0000
  H   H5        1.0  0.40068  0.61121  0.79859  1.0000
  H   H6        1.0  0.59932  0.38879  0.20141  1.0000
  H   H7        1.0  0.32087  0.51920  0.94736  1.0000
  H   H8        1.0  0.67913  0.48080  0.05264  1.0000
  H   H9        1.0  0.12807  0.48788  0.09459  1.0000
  H   H10       1.0  0.87193  0.51211  0.90542  1.0000
  H   H11       1.0  0.02709  0.41670  0.24268  1.0000
  H   H12       1.0  0.97290  0.58330  0.75732  1.0000
  H   H13       1.0  0.66991  0.88676  0.24749  1.0000
  H   H14       1.0  0.33010  0.11325  0.75250  1.0000
  H   H15       1.0  0.77521  0.96505  0.10081  1.0000
  H   H16       1.0  0.22480  0.03494  0.89918  1.0000
  H   H17       1.0  0.38754  0.97024  0.38886  1.0000
  H   H18       1.0  0.61245  0.02977  0.61114  1.0000
  H   H19       1.0  0.14345  0.23006  0.39013  1.0000
  H   H20       1.0  0.85654  0.76996  0.60987  1.0000
  H   H21       1.0  0.02136  0.10843  0.64573  1.0000
  H   H22       1.0  0.97864  0.89157  0.35427  1.0000
  H   H23       1.0  0.26964  0.85151  0.64579  1.0000
  H   H24       1.0  0.73036  0.14848  0.35421  1.0000
  C   C1        1.0  0.45839  0.23063  0.02964  1.0000
  C   C2        1.0  0.54162  0.76936  0.97036  1.0000
  C   C3        1.0  0.50492  0.28383  0.94457  1.0000
  C   C4        1.0  0.49508  0.71616  0.05543  1.0000
  C   C5        1.0  0.63287  0.18020  0.89560  1.0000
  C   C6        1.0  0.36714  0.81979  0.10440  1.0000
  C   C7        1.0  0.67405  0.23290  0.81220  1.0000
  C   C8        1.0  0.32594  0.76710  0.18779  1.0000
  C   C9        1.0  0.59051  0.38794  0.77703  1.0000
  C   C10       1.0  0.40949  0.61206  0.22297  1.0000
  C   C11       1.0  0.46443  0.49098  0.82640  1.0000
  C   C12       1.0  0.53557  0.50902  0.17360  1.0000
  C   C13       1.0  0.42073  0.43962  0.90972  1.0000
  C   C14       1.0  0.57927  0.56038  0.09028  1.0000
  C   C15       1.0  0.63132  0.44165  0.68572  1.0000
  C   C16       1.0  0.36869  0.55835  0.31427  1.0000
  C   C17       1.0  0.01589  0.77196  0.00307  1.0000
  C   C18       1.0  0.98412  0.22802  0.99693  1.0000
  C   C19       1.0  0.95634  0.73058  0.08779  1.0000
  C   C20       1.0  0.04367  0.26941  0.91221  1.0000
  C   C21       1.0  0.02800  0.57555  0.12786  1.0000
  C   C22       1.0  0.97202  0.42443  0.87214  1.0000
  C   C23       1.0  0.97200  0.53574  0.21086  1.0000
  C   C24       1.0  0.02801  0.46426  0.78915  1.0000
  C   C25       1.0  0.84327  0.64785  0.25428  1.0000
  C   C26       1.0  0.15673  0.35216  0.74572  1.0000
  C   C27       1.0  0.77175  0.80160  0.21378  1.0000
  C   C28       1.0  0.22825  0.19841  0.78621  1.0000
  C   C29       1.0  0.82825  0.84433  0.13128  1.0000
  C   C30       1.0  0.17176  0.15566  0.86872  1.0000
  C   C31       1.0  0.78268  0.60419  0.34407  1.0000
  C   C32       1.0  0.21731  0.39582  0.65593  1.0000
  C   C33       1.0  0.30592  0.00313  0.44623  1.0000
  C   C34       1.0  0.69407  0.99687  0.55377  1.0000
  C   C35       1.0  0.17224  0.14409  0.44686  1.0000
  C   C36       1.0  0.82776  0.85592  0.55315  1.0000
  C   C37       1.0  0.10465  0.07672  0.58873  1.0000
  C   C38       1.0  0.89535  0.92328  0.41127  1.0000
  C   C39       1.0  0.23979  0.93681  0.58882  1.0000
  C   C40       1.0  0.76020  0.06319  0.41118  1.0000
  N   N1        1.0  0.41868  0.18854  0.09951  1.0000
  N   N2        1.0  0.58132  0.81145  0.90049  1.0000
  N   N3        1.0  0.06698  0.80292  0.93356  1.0000
  N   N4        1.0  0.93304  0.19707  0.06643  1.0000
  N   N5        1.0  0.33847  0.90014  0.51725  1.0000
  N   N6        1.0  0.66152  0.09987  0.48275  1.0000
  N   N7        1.0  0.07078  0.17892  0.51777  1.0000
  N   N8        1.0  0.92922  0.82109  0.48224  1.0000
  O   O1        1.0  0.55127  0.58272  0.65696  1.0000
  O   O2        1.0  0.44875  0.41729  0.34304  1.0000
  O   O3        1.0  0.74343  0.33747  0.64416  1.0000
  O   O4        1.0  0.25656  0.66253  0.35584  1.0000
  O   O5        1.0  0.86914  0.46979  0.38024  1.0000
  O   O6        1.0  0.13086  0.53022  0.61976  1.0000
  O   O7        1.0  0.65442  0.70352  0.37671  1.0000
  O   O8        1.0  0.34556  0.29649  0.62329  1.0000
