data_image0
_chemical_formula_structural       SnH21C13NF2
_chemical_formula_sum              "Sn1 H21 C13 N1 F2"
_cell_length_a       5.16545
_cell_length_b       8.42225
_cell_length_c       9.13275
_cell_angle_alpha    87.0129
_cell_angle_beta     76.9629
_cell_angle_gamma    74.9143

_space_group_name_H-M_alt    "P 1"
_space_group_IT_number       1

loop_
  _space_group_symop_operation_xyz
  'x, y, z'

loop_
  _atom_site_type_symbol
  _atom_site_label
  _atom_site_symmetry_multiplicity
  _atom_site_fract_x
  _atom_site_fract_y
  _atom_site_fract_z
  _atom_site_occupancy
  Sn  Sn1       1.0  0.00900  0.06102  0.41028  1.0000
  H   H1        1.0  0.74736  0.01599  0.75210  1.0000
  H   H2        1.0  0.55486  0.19469  0.97971  1.0000
  H   H3        1.0  0.72197  0.59048  0.43955  1.0000
  H   H4        1.0  0.06893  0.48494  0.42359  1.0000
  H   H5        1.0  0.20062  0.73776  0.17137  1.0000
  H   H6        1.0  0.83868  0.80150  0.22304  1.0000
  H   H7        1.0  0.66517  0.61690  0.70754  1.0000
  H   H8        1.0  0.86946  0.09409  0.14486  1.0000
  H   H9        1.0  0.23085  0.02582  0.12357  1.0000
  H   H10       1.0  0.00303  0.68643  0.96029  1.0000
  H   H11       1.0  0.80386  0.89091  0.96774  1.0000
  H   H12       1.0  0.52195  0.49668  0.95784  1.0000
  H   H13       1.0  0.23157  0.83247  0.75350  1.0000
  H   H14       1.0  0.43709  0.79534  0.89047  1.0000
  H   H15       1.0  0.22117  0.99355  0.87305  1.0000
  H   H16       1.0  0.45898  0.50540  0.29499  1.0000
  H   H17       1.0  0.46213  0.33583  0.42310  1.0000
  H   H18       1.0  0.55449  0.29663  0.22758  1.0000
  H   H19       1.0  0.19639  0.41868  0.16647  1.0000
  H   H20       1.0  0.87262  0.54145  0.14091  1.0000
  H   H21       1.0  0.98656  0.33232  0.08080  1.0000
  C   C1        1.0  0.78627  0.38577  0.58991  1.0000
  C   C2        1.0  0.72918  0.14774  0.74340  1.0000
  C   C3        1.0  0.62284  0.24829  0.87102  1.0000
  C   C4        1.0  0.81305  0.21585  0.60338  1.0000
  C   C5        1.0  0.86214  0.46622  0.43990  1.0000
  C   C6        1.0  0.01961  0.82938  0.14756  1.0000
  C   C7        1.0  0.68374  0.48508  0.71884  1.0000
  C   C8        1.0  0.03425  0.00128  0.18142  1.0000
  C   C9        1.0  0.00377  0.81345  0.98306  1.0000
  C   C10       1.0  0.60340  0.41689  0.85878  1.0000
  C   C11       1.0  0.23573  0.86138  0.86863  1.0000
  C   C12       1.0  0.56564  0.37688  0.31528  1.0000
  C   C13       1.0  0.98501  0.41720  0.16827  1.0000
  N   N1        1.0  0.85317  0.36517  0.31547  1.0000
  F   F1        1.0  0.40683  0.05859  0.39333  1.0000
  F   F2        1.0  0.03157  0.84074  0.50997  1.0000
