data_image0
_chemical_formula_structural       Hg4H40C20N4Cl8O8
_chemical_formula_sum              "Hg4 H40 C20 N4 Cl8 O8"
_cell_length_a       7.5582
_cell_length_b       9.13905
_cell_length_c       13.8057
_cell_angle_alpha    103.091
_cell_angle_beta     90.0001
_cell_angle_gamma    90

_space_group_name_H-M_alt    "P 1"
_space_group_IT_number       1

loop_
  _space_group_symop_operation_xyz
  'x, y, z'

loop_
  _atom_site_type_symbol
  _atom_site_label
  _atom_site_symmetry_multiplicity
  _atom_site_fract_x
  _atom_site_fract_y
  _atom_site_fract_z
  _atom_site_occupancy
  Hg  Hg1       1.0  0.98841  0.76579  0.82725  1.0000
  Hg  Hg2       1.0  0.48842  0.73420  0.67275  1.0000
  Hg  Hg3       1.0  0.01159  0.23420  0.17275  1.0000
  Hg  Hg4       1.0  0.51158  0.26580  0.32725  1.0000
  H   H1        1.0  0.76578  0.78795  0.50543  1.0000
  H   H2        1.0  0.26577  0.71205  0.99458  1.0000
  H   H3        1.0  0.23422  0.21206  0.49458  1.0000
  H   H4        1.0  0.73423  0.28794  0.00543  1.0000
  H   H5        1.0  0.85950  0.61020  0.45871  1.0000
  H   H6        1.0  0.35949  0.88979  0.04129  1.0000
  H   H7        1.0  0.14050  0.38981  0.54129  1.0000
  H   H8        1.0  0.64051  0.11019  0.95871  1.0000
  H   H9        1.0  0.00050  0.84702  0.29255  1.0000
  H   H10       1.0  0.50052  0.65298  0.20745  1.0000
  H   H11       1.0  0.99948  0.15299  0.70745  1.0000
  H   H12       1.0  0.49949  0.34701  0.79255  1.0000
  H   H13       1.0  0.88738  0.67693  0.30096  1.0000
  H   H14       1.0  0.38739  0.82307  0.19905  1.0000
  H   H15       1.0  0.11261  0.32308  0.69904  1.0000
  H   H16       1.0  0.61262  0.17693  0.80096  1.0000
  H   H17       1.0  0.79260  0.85655  0.35616  1.0000
  H   H18       1.0  0.29261  0.64345  0.14384  1.0000
  H   H19       1.0  0.20738  0.14345  0.64384  1.0000
  H   H20       1.0  0.70740  0.35655  0.85616  1.0000
  H   H21       1.0  0.26127  0.74707  0.36163  1.0000
  H   H22       1.0  0.76128  0.75294  0.13836  1.0000
  H   H23       1.0  0.73871  0.25295  0.63836  1.0000
  H   H24       1.0  0.23872  0.24705  0.86164  1.0000
  H   H25       1.0  0.24287  0.68746  0.47614  1.0000
  H   H26       1.0  0.74286  0.81254  0.02385  1.0000
  H   H27       1.0  0.75713  0.31255  0.52385  1.0000
  H   H28       1.0  0.25714  0.18744  0.97615  1.0000
  H   H29       1.0  0.13525  0.58177  0.36602  1.0000
  H   H30       1.0  0.63525  0.91824  0.13397  1.0000
  H   H31       1.0  0.86474  0.41825  0.63397  1.0000
  H   H32       1.0  0.36475  0.08175  0.86603  1.0000
  H   H33       1.0  0.15846  0.98270  0.42674  1.0000
  H   H34       1.0  0.65847  0.51731  0.07326  1.0000
  H   H35       1.0  0.84153  0.01731  0.57325  1.0000
  H   H36       1.0  0.34153  0.48268  0.92674  1.0000
  H   H37       1.0  0.16081  0.93273  0.54452  1.0000
  H   H38       1.0  0.66080  0.56728  0.95548  1.0000
  H   H39       1.0  0.83919  0.06729  0.45547  1.0000
  H   H40       1.0  0.33920  0.43271  0.04453  1.0000
  C   C1        1.0  0.95600  0.72494  0.60430  1.0000
  C   C2        1.0  0.45596  0.77507  0.89569  1.0000
  C   C3        1.0  0.04402  0.27507  0.39569  1.0000
  C   C4        1.0  0.54403  0.22492  0.10431  1.0000
  C   C5        1.0  0.89062  0.72510  0.49930  1.0000
  C   C6        1.0  0.39060  0.77490  0.00070  1.0000
  C   C7        1.0  0.10939  0.27490  0.50070  1.0000
  C   C8        1.0  0.60939  0.22510  0.99930  1.0000
  C   C9        1.0  0.91605  0.79317  0.33895  1.0000
  C   C10       1.0  0.41605  0.70682  0.16105  1.0000
  C   C11       1.0  0.08395  0.20682  0.66105  1.0000
  C   C12       1.0  0.58395  0.29317  0.83895  1.0000
  C   C13       1.0  0.17544  0.69371  0.40728  1.0000
  C   C14       1.0  0.67543  0.80630  0.09272  1.0000
  C   C15       1.0  0.82456  0.30631  0.59271  1.0000
  C   C16       1.0  0.32457  0.19369  0.90728  1.0000
  C   C17       1.0  0.07654  0.94668  0.48272  1.0000
  C   C18       1.0  0.57654  0.55332  0.01728  1.0000
  C   C19       1.0  0.92346  0.05333  0.51727  1.0000
  C   C20       1.0  0.42346  0.44667  0.98272  1.0000
  N   N1        1.0  0.01336  0.79064  0.43348  1.0000
  N   N2        1.0  0.51336  0.70937  0.06651  1.0000
  N   N3        1.0  0.98663  0.20938  0.56651  1.0000
  N   N4        1.0  0.48664  0.29062  0.93349  1.0000
  Cl  Cl1       1.0  0.93173  0.02717  0.85248  1.0000
  Cl  Cl2       1.0  0.43174  0.47283  0.64752  1.0000
  Cl  Cl3       1.0  0.06827  0.97282  0.14752  1.0000
  Cl  Cl4       1.0  0.56828  0.52717  0.35248  1.0000
  Cl  Cl5       1.0  0.01618  0.52757  0.86861  1.0000
  Cl  Cl6       1.0  0.51619  0.97243  0.63141  1.0000
  Cl  Cl7       1.0  0.98382  0.47243  0.13141  1.0000
  Cl  Cl8       1.0  0.48382  0.02757  0.36860  1.0000
  O   O1        1.0  0.83882  0.68101  0.65799  1.0000
  O   O2        1.0  0.33878  0.81898  0.84202  1.0000
  O   O3        1.0  0.16121  0.31900  0.34201  1.0000
  O   O4        1.0  0.66121  0.18100  0.15799  1.0000
  O   O5        1.0  0.11024  0.76561  0.63176  1.0000
  O   O6        1.0  0.61021  0.73440  0.86823  1.0000
  O   O7        1.0  0.88978  0.23440  0.36823  1.0000
  O   O8        1.0  0.38979  0.26559  0.13177  1.0000
