data_image0
_chemical_formula_structural       Hg4H22C11N2Cl8O4
_chemical_formula_sum              "Hg4 H22 C11 N2 Cl8 O4"
_cell_length_a       7.82051
_cell_length_b       10.2881
_cell_length_c       10.5376
_cell_angle_alpha    115.802
_cell_angle_beta     89.9938
_cell_angle_gamma    112.342

_space_group_name_H-M_alt    "P 1"
_space_group_IT_number       1

loop_
  _space_group_symop_operation_xyz
  'x, y, z'

loop_
  _atom_site_type_symbol
  _atom_site_label
  _atom_site_symmetry_multiplicity
  _atom_site_fract_x
  _atom_site_fract_y
  _atom_site_fract_z
  _atom_site_occupancy
  Hg  Hg1       1.0  0.10659  0.48731  0.86391  1.0000
  Hg  Hg2       1.0  0.61960  0.51265  0.13606  1.0000
  Hg  Hg3       1.0  0.24422  0.82053  0.27963  1.0000
  Hg  Hg4       1.0  0.42348  0.17927  0.72034  1.0000
  H   H1        1.0  0.06099  0.98923  0.77858  1.0000
  H   H2        1.0  0.07190  0.01083  0.22140  1.0000
  H   H3        1.0  0.96019  0.90273  0.59542  1.0000
  H   H4        1.0  0.05757  0.09732  0.40454  1.0000
  H   H5        1.0  0.91950  0.74754  0.78296  1.0000
  H   H6        1.0  0.17203  0.25255  0.21699  1.0000
  H   H7        1.0  0.67215  0.62269  0.70826  1.0000
  H   H8        1.0  0.04941  0.37733  0.29166  1.0000
  H   H9        1.0  0.83351  0.66064  0.59452  1.0000
  H   H10       1.0  0.17292  0.33951  0.40544  1.0000
  H   H11       1.0  0.63266  0.73848  0.50527  1.0000
  H   H12       1.0  0.89443  0.26153  0.49480  1.0000
  H   H13       1.0  0.47687  0.71546  0.62670  1.0000
  H   H14       1.0  0.76154  0.28458  0.37347  1.0000
  H   H15       1.0  0.58342  0.90312  0.62505  1.0000
  H   H16       1.0  0.68053  0.09692  0.37508  1.0000
  H   H17       1.0  0.59063  0.83014  0.87037  1.0000
  H   H18       1.0  0.76038  0.16987  0.12975  1.0000
  H   H19       1.0  0.67349  0.01615  0.86877  1.0000
  H   H20       1.0  0.65747  0.98380  0.13124  1.0000
  H   H21       1.0  0.99857  0.09156  0.99586  1.0000
  H   H22       1.0  0.90736  0.90879  0.00414  1.0000
  C   C1        1.0  0.94788  0.12659  0.73022  1.0000
  C   C2        1.0  0.82148  0.87343  0.26980  1.0000
  C   C3        1.0  0.94126  0.96646  0.70541  1.0000
  C   C4        1.0  0.97493  0.03358  0.29456  1.0000
  C   C5        1.0  0.80051  0.71066  0.70148  1.0000
  C   C6        1.0  0.08990  0.28943  0.29848  1.0000
  C   C7        1.0  0.60192  0.79828  0.61119  1.0000
  C   C8        1.0  0.80385  0.20178  0.38892  1.0000
  C   C9        1.0  0.71555  0.92623  0.86935  1.0000
  C   C10       1.0  0.78938  0.07384  0.13070  1.0000
  C   C11       1.0  0.87064  0.00014  0.00003  1.0000
  N   N1        1.0  0.76640  0.85242  0.72380  1.0000
  N   N2        1.0  0.91409  0.14763  0.27620  1.0000
  Cl  Cl1       1.0  0.08185  0.46739  0.07958  1.0000
  Cl  Cl2       1.0  0.61461  0.53237  0.92029  1.0000
  Cl  Cl3       1.0  0.15187  0.57047  0.68746  1.0000
  Cl  Cl4       1.0  0.58150  0.42945  0.31248  1.0000
  Cl  Cl5       1.0  0.28313  0.87678  0.08535  1.0000
  Cl  Cl6       1.0  0.40605  0.12299  0.91460  1.0000
  Cl  Cl7       1.0  0.21867  0.78300  0.48364  1.0000
  Cl  Cl8       1.0  0.43541  0.21653  0.51621  1.0000
  O   O1        1.0  0.11281  0.22095  0.73092  1.0000
  O   O2        1.0  0.89217  0.77912  0.26902  1.0000
  O   O3        1.0  0.80777  0.15877  0.74786  1.0000
  O   O4        1.0  0.64918  0.84118  0.25230  1.0000
