data_image0
_chemical_formula_structural       Cd2H32C32S2N8O8
_chemical_formula_sum              "Cd2 H32 C32 S2 N8 O8"
_cell_length_a       8.90796
_cell_length_b       8.8242
_cell_length_c       13.0786
_cell_angle_alpha    101.063
_cell_angle_beta     90
_cell_angle_gamma    120.315

_space_group_name_H-M_alt    "P 1"
_space_group_IT_number       1

loop_
  _space_group_symop_operation_xyz
  'x, y, z'

loop_
  _atom_site_type_symbol
  _atom_site_label
  _atom_site_symmetry_multiplicity
  _atom_site_fract_x
  _atom_site_fract_y
  _atom_site_fract_z
  _atom_site_occupancy
  Cd  Cd1       1.0  0.50000  0.00000  0.00000  1.0000
  Cd  Cd2       1.0  0.50000  1.00000  0.50000  1.0000
  H   H1        1.0  0.94454  0.01818  0.07891  1.0000
  H   H2        1.0  0.92637  0.98183  0.42110  1.0000
  H   H3        1.0  0.05546  0.98183  0.92109  1.0000
  H   H4        1.0  0.07363  0.01817  0.57891  1.0000
  H   H5        1.0  0.41935  0.80484  0.73765  1.0000
  H   H6        1.0  0.61450  0.19516  0.76235  1.0000
  H   H7        1.0  0.58066  0.19516  0.26235  1.0000
  H   H8        1.0  0.38550  0.80484  0.23765  1.0000
  H   H9        1.0  0.08804  0.62695  0.97315  1.0000
  H   H10       1.0  0.46109  0.37304  0.52685  1.0000
  H   H11       1.0  0.91196  0.37305  0.02685  1.0000
  H   H12       1.0  0.53891  0.62695  0.47315  1.0000
  H   H13       1.0  0.92701  0.37741  0.78262  1.0000
  H   H14       1.0  0.54960  0.62258  0.71737  1.0000
  H   H15       1.0  0.07299  0.62259  0.21738  1.0000
  H   H16       1.0  0.45040  0.37741  0.28262  1.0000
  H   H17       1.0  0.06979  0.34575  0.60321  1.0000
  H   H18       1.0  0.72404  0.65425  0.89679  1.0000
  H   H19       1.0  0.93021  0.65426  0.39679  1.0000
  H   H20       1.0  0.27595  0.34575  0.10321  1.0000
  H   H21       1.0  0.25948  0.54687  0.58557  1.0000
  H   H22       1.0  0.71261  0.45313  0.91443  1.0000
  H   H23       1.0  0.74052  0.45313  0.41443  1.0000
  H   H24       1.0  0.28739  0.54687  0.08557  1.0000
  H   H25       1.0  0.07344  0.68533  0.57459  1.0000
  H   H26       1.0  0.38810  0.31467  0.92541  1.0000
  H   H27       1.0  0.92657  0.31467  0.42541  1.0000
  H   H28       1.0  0.61190  0.68533  0.07459  1.0000
  H   H29       1.0  0.88710  0.48335  0.59100  1.0000
  H   H30       1.0  0.40375  0.51665  0.90900  1.0000
  H   H31       1.0  0.11290  0.51665  0.40900  1.0000
  H   H32       1.0  0.59625  0.48335  0.09100  1.0000
  C   C1        1.0  0.24619  0.99855  0.12521  1.0000
  C   C2        1.0  0.24764  0.00144  0.37479  1.0000
  C   C3        1.0  0.75380  0.00144  0.87479  1.0000
  C   C4        1.0  0.75236  0.99856  0.62521  1.0000
  C   C5        1.0  0.11836  0.00769  0.19605  1.0000
  C   C6        1.0  0.11067  0.99230  0.30395  1.0000
  C   C7        1.0  0.88163  0.99230  0.80395  1.0000
  C   C8        1.0  0.88933  0.00770  0.69605  1.0000
  C   C9        1.0  0.97809  0.01511  0.15804  1.0000
  C   C10       1.0  0.96298  0.98489  0.34196  1.0000
  C   C11       1.0  0.02191  0.98489  0.84196  1.0000
  C   C12       1.0  0.03702  0.01511  0.65804  1.0000
  C   C13       1.0  0.30841  0.72486  0.77767  1.0000
  C   C14       1.0  0.58355  0.27514  0.72233  1.0000
  C   C15       1.0  0.69159  0.27514  0.22233  1.0000
  C   C16       1.0  0.41645  0.72486  0.27767  1.0000
  C   C17       1.0  0.13201  0.62607  0.89595  1.0000
  C   C18       1.0  0.50595  0.37393  0.60406  1.0000
  C   C19       1.0  0.86799  0.37394  0.10406  1.0000
  C   C20       1.0  0.49405  0.62607  0.39594  1.0000
  C   C21       1.0  0.05054  0.50384  0.80226  1.0000
  C   C22       1.0  0.54670  0.49616  0.69774  1.0000
  C   C23       1.0  0.94946  0.49616  0.19774  1.0000
  C   C24       1.0  0.45330  0.50384  0.30226  1.0000
  C   C25       1.0  0.13120  0.49238  0.61541  1.0000
  C   C26       1.0  0.63882  0.50762  0.88460  1.0000
  C   C27       1.0  0.86880  0.50762  0.38460  1.0000
  C   C28       1.0  0.36118  0.49238  0.11540  1.0000
  C   C29       1.0  0.01408  0.53836  0.55904  1.0000
  C   C30       1.0  0.47573  0.46164  0.94096  1.0000
  C   C31       1.0  0.98592  0.46165  0.44096  1.0000
  C   C32       1.0  0.52427  0.53836  0.05904  1.0000
  S   S1        1.0  0.83805  0.00001  0.25000  1.0000
  S   S2        1.0  0.16195  0.00000  0.75000  1.0000
  N   N1        1.0  0.16409  0.56885  0.72845  1.0000
  N   N2        1.0  0.59524  0.43115  0.77155  1.0000
  N   N3        1.0  0.83591  0.43115  0.27155  1.0000
  N   N4        1.0  0.40476  0.56885  0.22845  1.0000
  N   N5        1.0  0.29291  0.76247  0.87949  1.0000
  N   N6        1.0  0.53044  0.23753  0.62051  1.0000
  N   N7        1.0  0.70709  0.23753  0.12051  1.0000
  N   N8        1.0  0.46956  0.76247  0.37949  1.0000
  O   O1        1.0  0.30648  0.89740  0.13624  1.0000
  O   O2        1.0  0.40908  0.10259  0.36376  1.0000
  O   O3        1.0  0.69352  0.10260  0.86376  1.0000
  O   O4        1.0  0.59092  0.89740  0.63624  1.0000
  O   O5        1.0  0.28740  0.08873  0.05380  1.0000
  O   O6        1.0  0.19867  0.91126  0.44620  1.0000
  O   O7        1.0  0.71260  0.91127  0.94620  1.0000
  O   O8        1.0  0.80134  0.08874  0.55380  1.0000
