data_image0
_chemical_formula_structural       Mn2H38C36N12O10
_chemical_formula_sum              "Mn2 H38 C36 N12 O10"
_cell_length_a       8.95852
_cell_length_b       10.2414
_cell_length_c       12.0133
_cell_angle_alpha    101.054
_cell_angle_beta     110.593
_cell_angle_gamma    103.481

_space_group_name_H-M_alt    "P 1"
_space_group_IT_number       1

loop_
  _space_group_symop_operation_xyz
  'x, y, z'

loop_
  _atom_site_type_symbol
  _atom_site_label
  _atom_site_symmetry_multiplicity
  _atom_site_fract_x
  _atom_site_fract_y
  _atom_site_fract_z
  _atom_site_occupancy
  Mn  Mn1       1.0  0.15892  0.36212  0.01858  1.0000
  Mn  Mn2       1.0  0.84108  0.63788  0.98142  1.0000
  H   H1        1.0  0.14181  0.90658  0.04855  1.0000
  H   H2        1.0  0.85819  0.09342  0.95146  1.0000
  H   H3        1.0  0.57865  0.77535  0.18483  1.0000
  H   H4        1.0  0.42135  0.22465  0.81517  1.0000
  H   H5        1.0  0.63707  0.20676  0.18611  1.0000
  H   H6        1.0  0.36293  0.79324  0.81389  1.0000
  H   H7        1.0  0.00194  0.14071  0.41785  1.0000
  H   H8        1.0  0.99806  0.85929  0.58215  1.0000
  H   H9        1.0  0.82682  0.20500  0.38622  1.0000
  H   H10       1.0  0.17318  0.79499  0.61378  1.0000
  H   H11       1.0  0.07191  0.54720  0.24526  1.0000
  H   H12       1.0  0.92809  0.45280  0.75474  1.0000
  H   H13       1.0  0.02706  0.11785  0.15546  1.0000
  H   H14       1.0  0.97293  0.88215  0.84454  1.0000
  H   H15       1.0  0.98229  0.15698  0.71981  1.0000
  H   H16       1.0  0.01771  0.84302  0.28019  1.0000
  H   H17       1.0  0.39814  0.53083  0.88017  1.0000
  H   H18       1.0  0.60186  0.46917  0.11983  1.0000
  H   H19       1.0  0.38705  0.57306  0.67274  1.0000
  H   H20       1.0  0.61294  0.42694  0.32726  1.0000
  H   H21       1.0  0.23799  0.44116  0.53070  1.0000
  H   H22       1.0  0.76201  0.55884  0.46930  1.0000
  H   H23       1.0  0.55257  0.47660  0.58295  1.0000
  H   H24       1.0  0.44743  0.52340  0.41705  1.0000
  H   H25       1.0  0.56706  0.42175  0.71500  1.0000
  H   H26       1.0  0.43294  0.57825  0.28500  1.0000
  H   H27       1.0  0.34454  0.23960  0.44273  1.0000
  H   H28       1.0  0.65546  0.76040  0.55727  1.0000
  H   H29       1.0  0.35136  0.18491  0.57468  1.0000
  H   H30       1.0  0.64864  0.81509  0.42532  1.0000
  H   H31       1.0  0.65128  0.27606  0.50652  1.0000
  H   H32       1.0  0.34872  0.72393  0.49348  1.0000
  H   H33       1.0  0.66516  0.22713  0.64163  1.0000
  H   H34       1.0  0.33484  0.77287  0.35837  1.0000
  H   H35       1.0  0.44497  0.03147  0.37421  1.0000
  H   H36       1.0  0.55503  0.96853  0.62580  1.0000
  H   H37       1.0  0.65039  0.03757  0.46527  1.0000
  H   H38       1.0  0.34961  0.96242  0.53473  1.0000
  C   C1        1.0  0.38261  0.06449  0.10845  1.0000
  C   C2        1.0  0.61740  0.93551  0.89155  1.0000
  C   C3        1.0  0.27769  0.92909  0.08600  1.0000
  C   C4        1.0  0.72231  0.07091  0.91401  1.0000
  C   C5        1.0  0.34816  0.82430  0.11256  1.0000
  C   C6        1.0  0.65184  0.17570  0.88744  1.0000
  C   C7        1.0  0.52322  0.85640  0.16445  1.0000
  C   C8        1.0  0.47678  0.14360  0.83555  1.0000
  C   C9        1.0  0.62694  0.99475  0.19633  1.0000
  C   C10       1.0  0.37306  0.00525  0.80367  1.0000
  C   C11       1.0  0.55857  0.09926  0.16667  1.0000
  C   C12       1.0  0.44143  0.90074  0.83333  1.0000
  C   C13       1.0  0.30558  0.17289  0.07109  1.0000
  C   C14       1.0  0.69442  0.82711  0.92891  1.0000
  C   C15       1.0  0.23813  0.67960  0.09233  1.0000
  C   C16       1.0  0.76187  0.32040  0.90767  1.0000
  C   C17       1.0  0.89698  0.15337  0.34416  1.0000
  C   C18       1.0  0.10302  0.84663  0.65584  1.0000
  C   C19       1.0  0.04630  0.43859  0.24615  1.0000
  C   C20       1.0  0.95370  0.56141  0.75385  1.0000
  C   C21       1.0  0.02749  0.22151  0.19875  1.0000
  C   C22       1.0  0.97251  0.77849  0.80125  1.0000
  C   C23       1.0  0.08440  0.24674  0.73084  1.0000
  C   C24       1.0  0.91560  0.75326  0.26916  1.0000
  C   C25       1.0  0.29533  0.43608  0.81630  1.0000
  C   C26       1.0  0.70466  0.56392  0.18370  1.0000
  C   C27       1.0  0.33660  0.45983  0.62347  1.0000
  C   C28       1.0  0.66340  0.54017  0.37653  1.0000
  C   C29       1.0  0.48060  0.40643  0.61858  1.0000
  C   C30       1.0  0.51940  0.59357  0.38142  1.0000
  C   C31       1.0  0.42739  0.25348  0.54039  1.0000
  C   C32       1.0  0.57261  0.74652  0.45961  1.0000
  C   C33       1.0  0.57938  0.20756  0.54368  1.0000
  C   C34       1.0  0.42062  0.79244  0.45632  1.0000
  C   C35       1.0  0.53560  0.05332  0.47129  1.0000
  C   C36       1.0  0.46440  0.94668  0.52871  1.0000
  N   N1        1.0  0.96419  0.24874  0.28366  1.0000
  N   N2        1.0  0.03581  0.75126  0.71634  1.0000
  N   N3        1.0  0.97489  0.38692  0.31536  1.0000
  N   N4        1.0  0.02511  0.61308  0.68464  1.0000
  N   N5        1.0  0.08034  0.34068  0.17262  1.0000
  N   N6        1.0  0.91966  0.65933  0.82738  1.0000
  N   N7        1.0  0.18987  0.34465  0.84318  1.0000
  N   N8        1.0  0.81013  0.65534  0.15682  1.0000
  N   N9        1.0  0.11872  0.27239  0.63667  1.0000
  N   N10       1.0  0.88128  0.72761  0.36334  1.0000
  N   N11       1.0  0.25346  0.39367  0.69309  1.0000
  N   N12       1.0  0.74654  0.60633  0.30691  1.0000
  O   O1        1.0  0.39614  0.30290  0.11509  1.0000
  O   O2        1.0  0.60385  0.69710  0.88491  1.0000
  O   O3        1.0  0.14931  0.13252  0.99726  1.0000
  O   O4        1.0  0.85069  0.86749  0.00274  1.0000
  O   O5        1.0  0.09429  0.66526  0.09474  1.0000
  O   O6        1.0  0.90571  0.33474  0.90527  1.0000
  O   O7        1.0  0.29772  0.57889  0.07822  1.0000
  O   O8        1.0  0.70228  0.42111  0.92178  1.0000
  O   O9        1.0  0.79795  0.01889  0.26010  1.0000
  O   O10       1.0  0.20205  0.98111  0.73990  1.0000
