data_image0
_chemical_formula_structural       Zn2H28C32N10O10
_chemical_formula_sum              "Zn2 H28 C32 N10 O10"
_cell_length_a       9.71091
_cell_length_b       10.2805
_cell_length_c       11.3053
_cell_angle_alpha    117.107
_cell_angle_beta     97.0864
_cell_angle_gamma    110.217

_space_group_name_H-M_alt    "P 1"
_space_group_IT_number       1

loop_
  _space_group_symop_operation_xyz
  'x, y, z'

loop_
  _atom_site_type_symbol
  _atom_site_label
  _atom_site_symmetry_multiplicity
  _atom_site_fract_x
  _atom_site_fract_y
  _atom_site_fract_z
  _atom_site_occupancy
  Zn  Zn1       1.0  0.40716  0.39301  0.25134  1.0000
  Zn  Zn2       1.0  0.59283  0.60699  0.74866  1.0000
  H   H1        1.0  0.40769  0.87394  0.19582  1.0000
  H   H2        1.0  0.59231  0.12607  0.80419  1.0000
  H   H3        1.0  0.21999  0.15461  0.47394  1.0000
  H   H4        1.0  0.78001  0.84539  0.52607  1.0000
  H   H5        1.0  0.27143  0.76643  0.50232  1.0000
  H   H6        1.0  0.72856  0.23357  0.49768  1.0000
  H   H7        1.0  0.05548  0.12414  0.63152  1.0000
  H   H8        1.0  0.94452  0.87586  0.36848  1.0000
  H   H9        1.0  0.26622  0.23587  0.69119  1.0000
  H   H10       1.0  0.73378  0.76413  0.30882  1.0000
  H   H11       1.0  0.04792  0.13341  0.05287  1.0000
  H   H12       1.0  0.95208  0.86658  0.94713  1.0000
  H   H13       1.0  0.41615  0.34589  0.93484  1.0000
  H   H14       1.0  0.58385  0.65411  0.06516  1.0000
  H   H15       1.0  0.60947  0.31469  0.04666  1.0000
  H   H16       1.0  0.39053  0.68532  0.95334  1.0000
  H   H17       1.0  0.00657  0.58030  0.41102  1.0000
  H   H18       1.0  0.99343  0.41970  0.58898  1.0000
  H   H19       1.0  0.74611  0.58559  0.49204  1.0000
  H   H20       1.0  0.25390  0.41442  0.50797  1.0000
  H   H21       1.0  0.86963  0.27923  0.02802  1.0000
  H   H22       1.0  0.13036  0.72076  0.97198  1.0000
  H   H23       1.0  0.04120  0.43619  0.17658  1.0000
  H   H24       1.0  0.95879  0.56380  0.82341  1.0000
  H   H25       1.0  0.01515  0.64777  0.13660  1.0000
  H   H26       1.0  0.98484  0.35221  0.86338  1.0000
  H   H27       1.0  0.83897  0.49468  0.99323  1.0000
  H   H28       1.0  0.16103  0.50531  0.00676  1.0000
  C   C1        1.0  0.34123  0.80320  0.34147  1.0000
  C   C2        1.0  0.65876  0.19680  0.65852  1.0000
  C   C3        1.0  0.35805  0.89670  0.28012  1.0000
  C   C4        1.0  0.64194  0.10330  0.71988  1.0000
  C   C5        1.0  0.31480  0.02270  0.32893  1.0000
  C   C6        1.0  0.68520  0.97731  0.67107  1.0000
  C   C7        1.0  0.25385  0.05630  0.43944  1.0000
  C   C8        1.0  0.74615  0.94370  0.56057  1.0000
  C   C9        1.0  0.23686  0.96219  0.49985  1.0000
  C   C10       1.0  0.76313  0.03781  0.50015  1.0000
  C   C11       1.0  0.28045  0.83585  0.45168  1.0000
  C   C12       1.0  0.71954  0.16415  0.54832  1.0000
  C   C13       1.0  0.38989  0.66923  0.28941  1.0000
  C   C14       1.0  0.61009  0.33076  0.71059  1.0000
  C   C15       1.0  0.33540  0.12184  0.26197  1.0000
  C   C16       1.0  0.66461  0.87817  0.73804  1.0000
  C   C17       1.0  0.16649  0.13453  0.68129  1.0000
  C   C18       1.0  0.83351  0.86547  0.31871  1.0000
  C   C19       1.0  0.11387  0.16275  0.99024  1.0000
  C   C20       1.0  0.88613  0.83725  0.00976  1.0000
  C   C21       1.0  0.30479  0.27616  0.93780  1.0000
  C   C22       1.0  0.69521  0.72384  0.06220  1.0000
  C   C23       1.0  0.67962  0.38947  0.15750  1.0000
  C   C24       1.0  0.32039  0.61054  0.84251  1.0000
  C   C25       1.0  0.88557  0.52762  0.34956  1.0000
  C   C26       1.0  0.11444  0.47239  0.65044  1.0000
  C   C27       1.0  0.75694  0.52914  0.38807  1.0000
  C   C28       1.0  0.24307  0.47087  0.61193  1.0000
  C   C29       1.0  0.92929  0.41008  0.11231  1.0000
  C   C30       1.0  0.07071  0.58991  0.88768  1.0000
  C   C31       1.0  0.95369  0.51770  0.05019  1.0000
  C   C32       1.0  0.04631  0.48229  0.94980  1.0000
  N   N1        1.0  0.17641  0.17169  0.82205  1.0000
  N   N2        1.0  0.82359  0.82831  0.17795  1.0000
  N   N3        1.0  0.05282  0.09790  0.85328  1.0000
  N   N4        1.0  0.94718  0.90209  0.14672  1.0000
  N   N5        1.0  0.26840  0.27296  0.04642  1.0000
  N   N6        1.0  0.73160  0.72703  0.95358  1.0000
  N   N7        1.0  0.62938  0.44289  0.26667  1.0000
  N   N8        1.0  0.37063  0.55712  0.73333  1.0000
  N   N9        1.0  0.83451  0.43885  0.20363  1.0000
  N   N10       1.0  0.16550  0.56115  0.79637  1.0000
  O   O1        1.0  0.35698  0.57878  0.34252  1.0000
  O   O2        1.0  0.64302  0.42121  0.65747  1.0000
  O   O3        1.0  0.45630  0.64925  0.19810  1.0000
  O   O4        1.0  0.54369  0.35074  0.80190  1.0000
  O   O5        1.0  0.35805  0.07052  0.14630  1.0000
  O   O6        1.0  0.64199  0.92949  0.85371  1.0000
  O   O7        1.0  0.33057  0.26124  0.33376  1.0000
  O   O8        1.0  0.66944  0.73877  0.66625  1.0000
  O   O9        1.0  0.17545  0.98408  0.60734  1.0000
  O   O10       1.0  0.82454  0.01591  0.39266  1.0000
