data_image0
_chemical_formula_structural       Li4P4H40C36O16
_chemical_formula_sum              "Li4 P4 H40 C36 O16"
_cell_length_a       5.74721
_cell_length_b       11.8469
_cell_length_c       15.1229
_cell_angle_alpha    102.808
_cell_angle_beta     89.9824
_cell_angle_gamma    104.058

_space_group_name_H-M_alt    "P 1"
_space_group_IT_number       1

loop_
  _space_group_symop_operation_xyz
  'x, y, z'

loop_
  _atom_site_type_symbol
  _atom_site_label
  _atom_site_symmetry_multiplicity
  _atom_site_fract_x
  _atom_site_fract_y
  _atom_site_fract_z
  _atom_site_occupancy
  Li  Li1       1.0  0.08565  0.42953  0.03696  1.0000
  Li  Li2       1.0  0.65645  0.57044  0.46302  1.0000
  Li  Li3       1.0  0.91435  0.57048  0.96304  1.0000
  Li  Li4       1.0  0.34355  0.42954  0.53698  1.0000
  P   P1        1.0  0.54016  0.33459  0.93589  1.0000
  P   P2        1.0  0.20605  0.66550  0.56409  1.0000
  P   P3        1.0  0.45983  0.66542  0.06411  1.0000
  P   P4        1.0  0.79395  0.33449  0.43591  1.0000
  H   H1        1.0  0.84847  0.17472  0.86201  1.0000
  H   H2        1.0  0.67406  0.82578  0.63811  1.0000
  H   H3        1.0  0.15152  0.82528  0.13798  1.0000
  H   H4        1.0  0.32594  0.17422  0.36188  1.0000
  H   H5        1.0  0.77924  0.95375  0.82923  1.0000
  H   H6        1.0  0.82538  0.04674  0.67090  1.0000
  H   H7        1.0  0.22074  0.04625  0.17076  1.0000
  H   H8        1.0  0.17461  0.95326  0.32910  1.0000
  H   H9        1.0  0.39010  0.82784  0.85984  1.0000
  H   H10       1.0  0.56188  0.17241  0.64012  1.0000
  H   H11       1.0  0.60989  0.17216  0.14016  1.0000
  H   H12       1.0  0.43811  0.82758  0.35987  1.0000
  H   H13       1.0  0.06624  0.92356  0.92474  1.0000
  H   H14       1.0  0.14251  0.07629  0.57509  1.0000
  H   H15       1.0  0.93375  0.07644  0.07527  1.0000
  H   H16       1.0  0.85748  0.92370  0.42490  1.0000
  H   H17       1.0  0.13568  0.14437  0.95751  1.0000
  H   H18       1.0  0.99152  0.85550  0.54241  1.0000
  H   H19       1.0  0.86432  0.85563  0.04250  1.0000
  H   H20       1.0  0.00847  0.14450  0.45758  1.0000
  H   H21       1.0  0.49082  0.47168  0.85012  1.0000
  H   H22       1.0  0.01908  0.52827  0.64982  1.0000
  H   H23       1.0  0.50915  0.52832  0.14988  1.0000
  H   H24       1.0  0.98094  0.47173  0.35019  1.0000
  H   H25       1.0  0.60863  0.35730  0.78501  1.0000
  H   H26       1.0  0.25142  0.64259  0.71495  1.0000
  H   H27       1.0  0.39134  0.64270  0.21499  1.0000
  H   H28       1.0  0.74860  0.35742  0.28505  1.0000
  H   H29       1.0  0.18480  0.21501  0.77568  1.0000
  H   H30       1.0  0.97036  0.78500  0.72432  1.0000
  H   H31       1.0  0.81518  0.78498  0.22432  1.0000
  H   H32       1.0  0.02967  0.21501  0.27568  1.0000
  H   H33       1.0  0.07737  0.33965  0.82860  1.0000
  H   H34       1.0  0.73795  0.66042  0.67155  1.0000
  H   H35       1.0  0.92261  0.66035  0.17140  1.0000
  H   H36       1.0  0.26208  0.33959  0.32845  1.0000
  H   H37       1.0  0.96651  0.32256  0.59491  1.0000
  H   H38       1.0  0.64485  0.67782  0.90535  1.0000
  H   H39       1.0  0.03349  0.67743  0.40509  1.0000
  H   H40       1.0  0.35517  0.32218  0.09465  1.0000
  C   C1        1.0  0.49613  0.17394  0.91130  1.0000
  C   C2        1.0  0.32249  0.82616  0.58873  1.0000
  C   C3        1.0  0.50386  0.82606  0.08870  1.0000
  C   C4        1.0  0.67752  0.17383  0.41126  1.0000
  C   C5        1.0  0.67676  0.11940  0.87513  1.0000
  C   C6        1.0  0.55756  0.88091  0.62492  1.0000
  C   C7        1.0  0.32323  0.88060  0.12486  1.0000
  C   C8        1.0  0.44245  0.11909  0.37508  1.0000
  C   C9        1.0  0.63759  0.99548  0.85680  1.0000
  C   C10       1.0  0.64204  0.00483  0.64324  1.0000
  C   C11       1.0  0.36239  0.00451  0.14320  1.0000
  C   C12       1.0  0.35795  0.99517  0.35675  1.0000
  C   C13       1.0  0.41782  0.92451  0.87384  1.0000
  C   C14       1.0  0.49320  0.07570  0.62615  1.0000
  C   C15       1.0  0.58217  0.07549  0.12615  1.0000
  C   C16       1.0  0.50680  0.92430  0.37385  1.0000
  C   C17       1.0  0.23705  0.97816  0.90985  1.0000
  C   C18       1.0  0.25880  0.02183  0.59007  1.0000
  C   C19       1.0  0.76294  0.02185  0.09015  1.0000
  C   C20       1.0  0.74119  0.97816  0.40993  1.0000
  C   C21       1.0  0.27557  0.10218  0.92838  1.0000
  C   C22       1.0  0.17360  0.89778  0.57158  1.0000
  C   C23       1.0  0.72443  0.89782  0.07161  1.0000
  C   C24       1.0  0.82640  0.10221  0.42842  1.0000
  C   C25       1.0  0.46841  0.37444  0.83195  1.0000
  C   C26       1.0  0.09405  0.62554  0.66803  1.0000
  C   C27       1.0  0.53160  0.62556  0.16805  1.0000
  C   C28       1.0  0.90597  0.37447  0.33197  1.0000
  C   C29       1.0  0.22011  0.31308  0.78665  1.0000
  C   C30       1.0  0.90732  0.68697  0.71342  1.0000
  C   C31       1.0  0.77989  0.68692  0.21335  1.0000
  C   C32       1.0  0.09271  0.31304  0.28658  1.0000
  C   C33       1.0  0.19172  0.33949  0.69462  1.0000
  C   C34       1.0  0.85279  0.66072  0.80547  1.0000
  C   C35       1.0  0.80831  0.66052  0.30537  1.0000
  C   C36       1.0  0.14724  0.33928  0.19454  1.0000
  O   O1        1.0  0.80422  0.39708  0.96138  1.0000
  O   O2        1.0  0.40766  0.60304  0.53870  1.0000
  O   O3        1.0  0.19577  0.60293  0.03862  1.0000
  O   O4        1.0  0.59235  0.39696  0.46131  1.0000
  O   O5        1.0  0.35811  0.36246  0.00673  1.0000
  O   O6        1.0  0.99626  0.63745  0.49319  1.0000
  O   O7        1.0  0.64189  0.63754  0.99327  1.0000
  O   O8        1.0  0.00374  0.36255  0.50682  1.0000
  O   O9        1.0  0.96795  0.30202  0.65869  1.0000
  O   O10       1.0  0.66694  0.69840  0.84156  1.0000
  O   O11       1.0  0.03202  0.69797  0.34131  1.0000
  O   O12       1.0  0.33308  0.30161  0.15845  1.0000
  O   O13       1.0  0.36244  0.38998  0.65569  1.0000
  O   O14       1.0  0.97277  0.61013  0.84436  1.0000
  O   O15       1.0  0.63755  0.61002  0.34433  1.0000
  O   O16       1.0  0.02724  0.38988  0.15564  1.0000
