data_image0
_chemical_formula_structural       NiH26C32N8O4
_chemical_formula_sum              "Ni1 H26 C32 N8 O4"
_cell_length_a       8.91097
_cell_length_b       9.5337
_cell_length_c       9.46165
_cell_angle_alpha    106.889
_cell_angle_beta     92.2919
_cell_angle_gamma    113.612

_space_group_name_H-M_alt    "P 1"
_space_group_IT_number       1

loop_
  _space_group_symop_operation_xyz
  'x, y, z'

loop_
  _atom_site_type_symbol
  _atom_site_label
  _atom_site_symmetry_multiplicity
  _atom_site_fract_x
  _atom_site_fract_y
  _atom_site_fract_z
  _atom_site_occupancy
  Ni  Ni1       1.0  0.50000  0.50000  0.50000  1.0000
  H   H1        1.0  0.98947  0.47799  0.23862  1.0000
  H   H2        1.0  0.01054  0.52202  0.76139  1.0000
  H   H3        1.0  0.17959  0.23976  0.55503  1.0000
  H   H4        1.0  0.82041  0.76023  0.44498  1.0000
  H   H5        1.0  0.79570  0.18517  0.58987  1.0000
  H   H6        1.0  0.20430  0.81483  0.41014  1.0000
  H   H7        1.0  0.88608  0.04777  0.52954  1.0000
  H   H8        1.0  0.11392  0.95223  0.47047  1.0000
  H   H9        1.0  0.72649  0.04350  0.40432  1.0000
  H   H10       1.0  0.27351  0.95650  0.59568  1.0000
  H   H11       1.0  0.61949  0.47371  0.20265  1.0000
  H   H12       1.0  0.38050  0.52629  0.79734  1.0000
  H   H13       1.0  0.61314  0.26429  0.97586  1.0000
  H   H14       1.0  0.38685  0.73571  0.02413  1.0000
  H   H15       1.0  0.40596  0.91411  0.20705  1.0000
  H   H16       1.0  0.59404  0.08589  0.79294  1.0000
  H   H17       1.0  0.41656  0.14219  0.42221  1.0000
  H   H18       1.0  0.58343  0.85780  0.57778  1.0000
  H   H19       1.0  0.32507  0.25497  0.78325  1.0000
  H   H20       1.0  0.67493  0.74503  0.21675  1.0000
  H   H21       1.0  0.23496  0.02552  0.88004  1.0000
  H   H22       1.0  0.76503  0.97448  0.11996  1.0000
  H   H23       1.0  0.84144  0.15335  0.03455  1.0000
  H   H24       1.0  0.15855  0.84664  0.96545  1.0000
  H   H25       1.0  0.93826  0.36650  0.91963  1.0000
  H   H26       1.0  0.06173  0.63350  0.08037  1.0000
  C   C1        1.0  0.20081  0.47028  0.35069  1.0000
  C   C2        1.0  0.79919  0.52972  0.64931  1.0000
  C   C3        1.0  0.03104  0.42258  0.30831  1.0000
  C   C4        1.0  0.96896  0.57742  0.69170  1.0000
  C   C5        1.0  0.96450  0.24346  0.43937  1.0000
  C   C6        1.0  0.03550  0.75654  0.56063  1.0000
  C   C7        1.0  0.13488  0.29038  0.48253  1.0000
  C   C8        1.0  0.86512  0.70962  0.51746  1.0000
  C   C9        1.0  0.33806  0.59692  0.30564  1.0000
  C   C10       1.0  0.66193  0.40307  0.69436  1.0000
  C   C11       1.0  0.83615  0.12202  0.49291  1.0000
  C   C12       1.0  0.16386  0.87799  0.50710  1.0000
  C   C13       1.0  0.57001  0.34777  0.19820  1.0000
  C   C14       1.0  0.42998  0.65223  0.80179  1.0000
  C   C15       1.0  0.56814  0.22821  0.07121  1.0000
  C   C16       1.0  0.43186  0.77179  0.92878  1.0000
  C   C17       1.0  0.50557  0.06625  0.06766  1.0000
  C   C18       1.0  0.49444  0.93375  0.93234  1.0000
  C   C19       1.0  0.45266  0.03551  0.19830  1.0000
  C   C20       1.0  0.54734  0.96448  0.80170  1.0000
  C   C21       1.0  0.45740  0.16214  0.31976  1.0000
  C   C22       1.0  0.54261  0.83786  0.68024  1.0000
  C   C23       1.0  0.21628  0.22744  0.83858  1.0000
  C   C24       1.0  0.78373  0.77257  0.16143  1.0000
  C   C25       1.0  0.16611  0.09909  0.89476  1.0000
  C   C26       1.0  0.83389  0.90092  0.10524  1.0000
  C   C27       1.0  0.02872  0.06690  0.96845  1.0000
  C   C28       1.0  0.97128  0.93310  0.03155  1.0000
  C   C29       1.0  0.94825  0.16841  0.97858  1.0000
  C   C30       1.0  0.05175  0.83159  0.02141  1.0000
  C   C31       1.0  0.00514  0.29186  0.91636  1.0000
  C   C32       1.0  0.99486  0.70814  0.08363  1.0000
  N   N1        1.0  0.25010  0.40222  0.43840  1.0000
  N   N2        1.0  0.74990  0.59778  0.56160  1.0000
  N   N3        1.0  0.91361  0.31034  0.35139  1.0000
  N   N4        1.0  0.08638  0.68966  0.64862  1.0000
  N   N5        1.0  0.51260  0.31592  0.32001  1.0000
  N   N6        1.0  0.48740  0.68408  0.67998  1.0000
  N   N7        1.0  0.13755  0.32335  0.84720  1.0000
  N   N8        1.0  0.86246  0.67666  0.15280  1.0000
  O   O1        1.0  0.48725  0.62633  0.35806  1.0000
  O   O2        1.0  0.51275  0.37367  0.64194  1.0000
  O   O3        1.0  0.29954  0.66449  0.22434  1.0000
  O   O4        1.0  0.70046  0.33551  0.77566  1.0000
