data_image0
_chemical_formula_structural       Sm2Cd2H24C30S2N4O24
_chemical_formula_sum              "Sm2 Cd2 H24 C30 S2 N4 O24"
_cell_length_a       8.67983
_cell_length_b       8.91967
_cell_length_c       13.3093
_cell_angle_alpha    87.8627
_cell_angle_beta     90.0343
_cell_angle_gamma    75.5752

_space_group_name_H-M_alt    "P 1"
_space_group_IT_number       1

loop_
  _space_group_symop_operation_xyz
  'x, y, z'

loop_
  _atom_site_type_symbol
  _atom_site_label
  _atom_site_symmetry_multiplicity
  _atom_site_fract_x
  _atom_site_fract_y
  _atom_site_fract_z
  _atom_site_occupancy
  Sm  Sm1       1.0  0.21544  0.81337  0.50405  1.0000
  Sm  Sm2       1.0  0.78455  0.18664  0.49595  1.0000
  Cd  Cd1       1.0  0.36129  0.34661  0.27592  1.0000
  Cd  Cd2       1.0  0.63870  0.65338  0.72408  1.0000
  H   H1        1.0  0.07238  0.65866  0.35020  1.0000
  H   H2        1.0  0.92762  0.34134  0.64979  1.0000
  H   H3        1.0  0.96793  0.82783  0.32235  1.0000
  H   H4        1.0  0.03206  0.17218  0.67765  1.0000
  H   H5        1.0  0.52250  0.88210  0.40924  1.0000
  H   H6        1.0  0.47749  0.11790  0.59077  1.0000
  H   H7        1.0  0.36443  0.97669  0.36574  1.0000
  H   H8        1.0  0.63556  0.02330  0.63426  1.0000
  H   H9        1.0  0.21222  0.07244  0.18900  1.0000
  H   H10       1.0  0.78778  0.92756  0.81100  1.0000
  H   H11       1.0  0.10005  0.00587  0.02918  1.0000
  H   H12       1.0  0.89996  0.99414  0.97082  1.0000
  H   H13       1.0  0.06881  0.19218  0.87971  1.0000
  H   H14       1.0  0.93121  0.80782  0.12029  1.0000
  H   H15       1.0  0.10950  0.44295  0.80462  1.0000
  H   H16       1.0  0.89052  0.55706  0.19538  1.0000
  H   H17       1.0  0.21631  0.67325  0.82155  1.0000
  H   H18       1.0  0.78370  0.32675  0.17845  1.0000
  H   H19       1.0  0.35825  0.82632  0.92578  1.0000
  H   H20       1.0  0.64176  0.17368  0.07422  1.0000
  H   H21       1.0  0.46651  0.86915  0.09583  1.0000
  H   H22       1.0  0.53350  0.13085  0.90418  1.0000
  H   H23       1.0  0.45259  0.68511  0.23888  1.0000
  H   H24       1.0  0.54741  0.31489  0.76112  1.0000
  C   C1        1.0  0.19741  0.15082  0.12288  1.0000
  C   C2        1.0  0.80259  0.84918  0.87712  1.0000
  C   C3        1.0  0.13232  0.11557  0.03307  1.0000
  C   C4        1.0  0.86769  0.88443  0.96693  1.0000
  C   C5        1.0  0.11516  0.21839  0.95119  1.0000
  C   C6        1.0  0.88485  0.78161  0.04881  1.0000
  C   C7        1.0  0.16725  0.35562  0.95867  1.0000
  C   C8        1.0  0.83277  0.64438  0.04133  1.0000
  C   C9        1.0  0.16071  0.46445  0.87594  1.0000
  C   C10       1.0  0.83931  0.53555  0.12405  1.0000
  C   C11       1.0  0.21997  0.59168  0.88535  1.0000
  C   C12       1.0  0.78005  0.40832  0.11465  1.0000
  C   C13       1.0  0.28815  0.62065  0.97868  1.0000
  C   C14       1.0  0.71186  0.37935  0.02133  1.0000
  C   C15       1.0  0.35445  0.74864  0.99065  1.0000
  C   C16       1.0  0.64556  0.25136  0.00936  1.0000
  C   C17       1.0  0.41507  0.77160  0.08340  1.0000
  C   C18       1.0  0.58494  0.22840  0.91660  1.0000
  C   C19       1.0  0.41056  0.66657  0.16413  1.0000
  C   C20       1.0  0.58945  0.33343  0.83588  1.0000
  C   C21       1.0  0.29285  0.51751  0.06335  1.0000
  C   C22       1.0  0.70716  0.48249  0.93665  1.0000
  C   C23       1.0  0.23305  0.38135  0.05240  1.0000
  C   C24       1.0  0.76697  0.61865  0.94760  1.0000
  C   C25       1.0  0.46489  0.48080  0.45096  1.0000
  C   C26       1.0  0.53507  0.51922  0.54904  1.0000
  C   C27       1.0  0.97093  0.63802  0.61195  1.0000
  C   C28       1.0  0.02907  0.36198  0.38805  1.0000
  C   C29       1.0  0.87006  0.80925  0.60114  1.0000
  C   C30       1.0  0.12993  0.19074  0.39886  1.0000
  S   S1        1.0  0.29169  0.95178  0.70134  1.0000
  S   S2        1.0  0.70830  0.04822  0.29866  1.0000
  N   N1        1.0  0.24543  0.27986  0.13180  1.0000
  N   N2        1.0  0.75458  0.72014  0.86820  1.0000
  N   N3        1.0  0.35376  0.54214  0.15373  1.0000
  N   N4        1.0  0.64625  0.45786  0.84627  1.0000
  O   O1        1.0  0.10511  0.60759  0.57007  1.0000
  O   O2        1.0  0.89488  0.39241  0.42994  1.0000
  O   O3        1.0  0.06984  0.76998  0.35537  1.0000
  O   O4        1.0  0.93015  0.23002  0.64462  1.0000
  O   O5        1.0  0.92850  0.90716  0.55229  1.0000
  O   O6        1.0  0.07148  0.09283  0.44771  1.0000
  O   O7        1.0  0.41796  0.86756  0.38825  1.0000
  O   O8        1.0  0.58204  0.13243  0.61175  1.0000
  O   O9        1.0  0.73551  0.84301  0.64243  1.0000
  O   O10       1.0  0.26447  0.15697  0.35756  1.0000
  O   O11       1.0  0.91003  0.54499  0.66270  1.0000
  O   O12       1.0  0.08996  0.45500  0.33730  1.0000
  O   O13       1.0  0.53341  0.35199  0.41309  1.0000
  O   O14       1.0  0.46657  0.64801  0.58691  1.0000
  O   O15       1.0  0.34583  0.57558  0.41325  1.0000
  O   O16       1.0  0.65416  0.42441  0.58676  1.0000
  O   O17       1.0  0.19357  0.83698  0.68717  1.0000
  O   O18       1.0  0.80642  0.16303  0.31283  1.0000
  O   O19       1.0  0.33914  0.98903  0.59543  1.0000
  O   O20       1.0  0.66085  0.01097  0.40457  1.0000
  O   O21       1.0  0.43443  0.88116  0.76475  1.0000
  O   O22       1.0  0.56556  0.11884  0.23525  1.0000
  O   O23       1.0  0.19790  0.09316  0.74689  1.0000
  O   O24       1.0  0.80209  0.90685  0.25311  1.0000
