data_image0
_chemical_formula_structural       Zn2H28C28N4O10
_chemical_formula_sum              "Zn2 H28 C28 N4 O10"
_cell_length_a       7.59125
_cell_length_b       9.07778
_cell_length_c       11.1219
_cell_angle_alpha    90
_cell_angle_beta     90.0004
_cell_angle_gamma    106.261

_space_group_name_H-M_alt    "P 1"
_space_group_IT_number       1

loop_
  _space_group_symop_operation_xyz
  'x, y, z'

loop_
  _atom_site_type_symbol
  _atom_site_label
  _atom_site_symmetry_multiplicity
  _atom_site_fract_x
  _atom_site_fract_y
  _atom_site_fract_z
  _atom_site_occupancy
  Zn  Zn1       1.0  0.53079  0.51677  0.75056  1.0000
  Zn  Zn2       1.0  0.46921  0.48323  0.25056  1.0000
  H   H1        1.0  0.75054  0.99474  0.69458  1.0000
  H   H2        1.0  0.24946  0.00526  0.19458  1.0000
  H   H3        1.0  0.83881  0.49747  0.81531  1.0000
  H   H4        1.0  0.16118  0.50253  0.31530  1.0000
  H   H5        1.0  0.73481  0.49728  0.94789  1.0000
  H   H6        1.0  0.26518  0.50272  0.44788  1.0000
  H   H7        1.0  0.96506  0.24232  0.47386  1.0000
  H   H8        1.0  0.03494  0.75768  0.97385  1.0000
  H   H9        1.0  0.83150  0.28013  0.69941  1.0000
  H   H10       1.0  0.16850  0.71987  0.19940  1.0000
  H   H11       1.0  0.43565  0.97215  0.01783  1.0000
  H   H12       1.0  0.56436  0.02786  0.51783  1.0000
  H   H13       1.0  0.29051  0.06149  0.71891  1.0000
  H   H14       1.0  0.70949  0.93850  0.21890  1.0000
  H   H15       1.0  0.14511  0.79803  0.64312  1.0000
  H   H16       1.0  0.85490  0.20196  0.14311  1.0000
  H   H17       1.0  0.51870  0.25777  0.02645  1.0000
  H   H18       1.0  0.48131  0.74224  0.52645  1.0000
  H   H19       1.0  0.82923  0.72032  0.38736  1.0000
  H   H20       1.0  0.17077  0.27967  0.88735  1.0000
  H   H21       1.0  0.98705  0.66031  0.46447  1.0000
  H   H22       1.0  0.01295  0.33969  0.96447  1.0000
  H   H23       1.0  0.82832  0.98094  0.39241  1.0000
  H   H24       1.0  0.17168  0.01906  0.89241  1.0000
  H   H25       1.0  0.62263  0.41402  0.53553  1.0000
  H   H26       1.0  0.37737  0.58599  0.03552  1.0000
  H   H27       1.0  0.74220  0.59031  0.55389  1.0000
  H   H28       1.0  0.25780  0.40970  0.05389  1.0000
  C   C1        1.0  0.69788  0.05312  0.76571  1.0000
  C   C2        1.0  0.30212  0.94689  0.26571  1.0000
  C   C3        1.0  0.67938  0.28633  0.86263  1.0000
  C   C4        1.0  0.32061  0.71367  0.36263  1.0000
  C   C5        1.0  0.00528  0.14505  0.51048  1.0000
  C   C6        1.0  0.99472  0.85494  0.01049  1.0000
  C   C7        1.0  0.52699  0.79493  0.84768  1.0000
  C   C8        1.0  0.47301  0.20507  0.34769  1.0000
  C   C9        1.0  0.74530  0.21222  0.76951  1.0000
  C   C10       1.0  0.25470  0.78778  0.26950  1.0000
  C   C11       1.0  0.22469  0.32619  0.64824  1.0000
  C   C12       1.0  0.77530  0.67380  0.14824  1.0000
  C   C13       1.0  0.58236  0.96559  0.85378  1.0000
  C   C14       1.0  0.41764  0.03442  0.35378  1.0000
  C   C15       1.0  0.13532  0.16926  0.60345  1.0000
  C   C16       1.0  0.86468  0.83074  0.10345  1.0000
  C   C17       1.0  0.52051  0.04084  0.94783  1.0000
  C   C18       1.0  0.47949  0.95915  0.44783  1.0000
  C   C19       1.0  0.18407  0.04228  0.65034  1.0000
  C   C20       1.0  0.81593  0.95771  0.15033  1.0000
  C   C21       1.0  0.97562  0.87210  0.51315  1.0000
  C   C22       1.0  0.02439  0.12790  0.01315  1.0000
  C   C23       1.0  0.10414  0.89538  0.60712  1.0000
  C   C24       1.0  0.89586  0.10462  0.10711  1.0000
  C   C25       1.0  0.56772  0.20040  0.95278  1.0000
  C   C26       1.0  0.43227  0.79960  0.45278  1.0000
  C   C27       1.0  0.92681  0.99863  0.46570  1.0000
  C   C28       1.0  0.07319  0.00136  0.96570  1.0000
  N   N1        1.0  0.72012  0.45003  0.86164  1.0000
  N   N2        1.0  0.27988  0.54998  0.36164  1.0000
  N   N3        1.0  0.89557  0.72372  0.46847  1.0000
  N   N4        1.0  0.10444  0.27628  0.96847  1.0000
  O   O1        1.0  0.58841  0.73728  0.75503  1.0000
  O   O2        1.0  0.41159  0.26273  0.25503  1.0000
  O   O3        1.0  0.32185  0.33449  0.74689  1.0000
  O   O4        1.0  0.67814  0.66552  0.24690  1.0000
  O   O5        1.0  0.42517  0.71529  0.92692  1.0000
  O   O6        1.0  0.57482  0.28471  0.42692  1.0000
  O   O7        1.0  0.21043  0.44406  0.59426  1.0000
  O   O8        1.0  0.78957  0.55594  0.09427  1.0000
  O   O9        1.0  0.66733  0.49565  0.59730  1.0000
  O   O10       1.0  0.33268  0.50435  0.09729  1.0000
