data_image0
_chemical_formula_structural       CdH40C28S2N4O10
_chemical_formula_sum              "Cd1 H40 C28 S2 N4 O10"
_cell_length_a       7.47025
_cell_length_b       9.91759
_cell_length_c       11.9072
_cell_angle_alpha    87.5591
_cell_angle_beta     71.1338
_cell_angle_gamma    84.1429

_space_group_name_H-M_alt    "P 1"
_space_group_IT_number       1

loop_
  _space_group_symop_operation_xyz
  'x, y, z'

loop_
  _atom_site_type_symbol
  _atom_site_label
  _atom_site_symmetry_multiplicity
  _atom_site_fract_x
  _atom_site_fract_y
  _atom_site_fract_z
  _atom_site_occupancy
  Cd  Cd1       1.0  0.27903  0.49900  0.60159  1.0000
  H   H1        1.0  0.89985  0.58259  0.55894  1.0000
  H   H2        1.0  0.72671  0.56477  0.41511  1.0000
  H   H3        1.0  0.24743  0.37748  0.17270  1.0000
  H   H4        1.0  0.39675  0.39836  0.32880  1.0000
  H   H5        1.0  0.85033  0.32811  0.94087  1.0000
  H   H6        1.0  0.69020  0.65318  0.26964  1.0000
  H   H7        1.0  0.10115  0.22408  0.91583  1.0000
  H   H8        1.0  0.26004  0.04713  0.08401  1.0000
  H   H9        1.0  0.30237  0.01349  0.93298  1.0000
  H   H10       1.0  0.43243  0.25504  0.03177  1.0000
  H   H11       1.0  0.46112  0.23618  0.87966  1.0000
  H   H12       1.0  0.57911  0.11646  0.95203  1.0000
  H   H13       1.0  0.79054  0.13580  0.04497  1.0000
  H   H14       1.0  0.92198  0.02666  0.11899  1.0000
  H   H15       1.0  0.95618  0.00504  0.96505  1.0000
  H   H16       1.0  0.42178  0.73780  0.30528  1.0000
  H   H17       1.0  0.52272  0.93447  0.09444  1.0000
  H   H18       1.0  0.66930  0.86980  0.17802  1.0000
  H   H19       1.0  0.44404  0.99570  0.35917  1.0000
  H   H20       1.0  0.31164  0.07168  0.26952  1.0000
  H   H21       1.0  0.55068  0.10455  0.24001  1.0000
  H   H22       1.0  0.11617  0.72516  0.27334  1.0000
  H   H23       1.0  0.16667  0.85253  0.16059  1.0000
  H   H24       1.0  0.13000  0.89382  0.31101  1.0000
  H   H25       1.0  0.28494  0.57920  0.04244  1.0000
  H   H26       1.0  0.14816  0.57017  0.87867  1.0000
  H   H27       1.0  0.66955  0.43787  0.63984  1.0000
  H   H28       1.0  0.83061  0.44522  0.79243  1.0000
  H   H29       1.0  0.89256  0.18149  0.45536  1.0000
  H   H30       1.0  0.83060  0.18802  0.32024  1.0000
  H   H31       1.0  0.81151  0.03429  0.40759  1.0000
  H   H32       1.0  0.41244  0.17196  0.69544  1.0000
  H   H33       1.0  0.66827  0.15891  0.65835  1.0000
  H   H34       1.0  0.55007  0.01929  0.62922  1.0000
  H   H35       1.0  0.90584  0.84743  0.55514  1.0000
  H   H36       1.0  0.15974  0.83658  0.52560  1.0000
  H   H37       1.0  0.01523  0.98650  0.59341  1.0000
  H   H38       1.0  0.71728  0.80252  0.89060  1.0000
  H   H39       1.0  0.66843  0.81273  0.75117  1.0000
  H   H40       1.0  0.73776  0.95921  0.80715  1.0000
  C   C1        1.0  0.97101  0.53757  0.47204  1.0000
  C   C2        1.0  0.87637  0.52893  0.39050  1.0000
  C   C3        1.0  0.97211  0.47329  0.27784  1.0000
  C   C4        1.0  0.16348  0.42329  0.25691  1.0000
  C   C5        1.0  0.24827  0.43469  0.34389  1.0000
  C   C6        1.0  0.87137  0.47674  0.18943  1.0000
  C   C7        1.0  0.91479  0.38251  0.09580  1.0000
  C   C8        1.0  0.81550  0.39847  0.01407  1.0000
  C   C9        1.0  0.66687  0.50072  0.02415  1.0000
  C   C10       1.0  0.61658  0.59065  0.12103  1.0000
  C   C11       1.0  0.72242  0.57966  0.19898  1.0000
  C   C12       1.0  0.08821  0.17354  0.00198  1.0000
  C   C13       1.0  0.27704  0.09600  0.99705  1.0000
  C   C14       1.0  0.44589  0.18051  0.96336  1.0000
  C   C15       1.0  0.92906  0.08019  0.03515  1.0000
  C   C16       1.0  0.40264  0.78396  0.22368  1.0000
  C   C17       1.0  0.52151  0.90449  0.18472  1.0000
  C   C18       1.0  0.45239  0.02525  0.26789  1.0000
  C   C19       1.0  0.19149  0.81591  0.24311  1.0000
  C   C20       1.0  0.57155  0.50938  0.93285  1.0000
  C   C21       1.0  0.37668  0.54789  0.95476  1.0000
  C   C22       1.0  0.29914  0.54302  0.86367  1.0000
  C   C23       1.0  0.59048  0.46936  0.73034  1.0000
  C   C24       1.0  0.67827  0.47148  0.81622  1.0000
  C   C25       1.0  0.79968  0.14544  0.41028  1.0000
  C   C26       1.0  0.54826  0.13000  0.63343  1.0000
  C   C27       1.0  0.02073  0.87604  0.58548  1.0000
  C   C28       1.0  0.75422  0.84823  0.80148  1.0000
  S   S1        1.0  0.55547  0.19859  0.49001  1.0000
  S   S2        1.0  0.00232  0.79993  0.72802  1.0000
  N   N1        1.0  0.15505  0.49188  0.44999  1.0000
  N   N2        1.0  0.40329  0.50375  0.75300  1.0000
  N   N3        1.0  0.03545  0.22880  0.68436  1.0000
  N   N4        1.0  0.52379  0.77225  0.53202  1.0000
  O   O1        1.0  0.05091  0.27795  0.09180  1.0000
  O   O2        1.0  0.46654  0.68437  0.12930  1.0000
  O   O3        1.0  0.54860  0.35297  0.49819  1.0000
  O   O4        1.0  0.01372  0.64662  0.71084  1.0000
  O   O5        1.0  0.11157  0.32010  0.72393  1.0000
  O   O6        1.0  0.08447  0.20821  0.57463  1.0000
  O   O7        1.0  0.91378  0.16290  0.75856  1.0000
  O   O8        1.0  0.45244  0.68091  0.48890  1.0000
  O   O9        1.0  0.65802  0.83165  0.46193  1.0000
  O   O10       1.0  0.45749  0.79936  0.64067  1.0000
