data_image0
_chemical_formula_structural       CdH44C30S2N4O10
_chemical_formula_sum              "Cd1 H44 C30 S2 N4 O10"
_cell_length_a       7.32517
_cell_length_b       9.90698
_cell_length_c       12.8193
_cell_angle_alpha    96.2495
_cell_angle_beta     100.55
_cell_angle_gamma    92.8405

_space_group_name_H-M_alt    "P 1"
_space_group_IT_number       1

loop_
  _space_group_symop_operation_xyz
  'x, y, z'

loop_
  _atom_site_type_symbol
  _atom_site_label
  _atom_site_symmetry_multiplicity
  _atom_site_fract_x
  _atom_site_fract_y
  _atom_site_fract_z
  _atom_site_occupancy
  Cd  Cd1       1.0  0.68845  0.03142  0.81726  1.0000
  H   H1        1.0  0.81671  0.07977  0.07166  1.0000
  H   H2        1.0  0.67943  0.08150  0.23523  1.0000
  H   H3        1.0  0.13670  0.06131  0.02967  1.0000
  H   H4        1.0  0.29716  0.06377  0.87724  1.0000
  H   H5        1.0  0.30382  0.17235  0.49980  1.0000
  H   H6        1.0  0.09631  0.90699  0.14268  1.0000
  H   H7        1.0  0.60493  0.26464  0.51761  1.0000
  H   H8        1.0  0.43215  0.36855  0.46006  1.0000
  H   H9        1.0  0.65696  0.44921  0.34795  1.0000
  H   H10       1.0  0.95420  0.33348  0.50739  1.0000
  H   H11       1.0  0.86105  0.25088  0.37876  1.0000
  H   H12       1.0  0.97821  0.44443  0.29377  1.0000
  H   H13       1.0  0.16140  0.37970  0.37990  1.0000
  H   H14       1.0  0.07065  0.53498  0.42115  1.0000
  H   H15       1.0  0.59593  0.59447  0.50682  1.0000
  H   H16       1.0  0.82981  0.62307  0.49273  1.0000
  H   H17       1.0  0.77582  0.52329  0.59133  1.0000
  H   H18       1.0  0.96360  0.72220  0.17008  1.0000
  H   H19       1.0  0.78320  0.82895  0.12606  1.0000
  H   H20       1.0  0.76586  0.60282  0.26891  1.0000
  H   H21       1.0  0.54664  0.60004  0.04253  1.0000
  H   H22       1.0  0.77584  0.54918  0.06403  1.0000
  H   H23       1.0  0.68961  0.36747  0.16976  1.0000
  H   H24       1.0  0.54531  0.34934  0.04130  1.0000
  H   H25       1.0  0.45901  0.41700  0.15533  1.0000
  H   H26       1.0  0.55278  0.78255  0.31026  1.0000
  H   H27       1.0  0.42355  0.63064  0.24636  1.0000
  H   H28       1.0  0.44798  0.76984  0.17254  1.0000
  H   H29       1.0  0.25564  0.02543  0.61597  1.0000
  H   H30       1.0  0.08700  0.01620  0.76503  1.0000
  H   H31       1.0  0.57409  0.97618  0.56177  1.0000
  H   H32       1.0  0.71961  0.98295  0.40221  1.0000
  H   H33       1.0  0.58294  0.69942  0.88951  1.0000
  H   H34       1.0  0.44291  0.54820  0.82559  1.0000
  H   H35       1.0  0.33206  0.69610  0.87363  1.0000
  H   H36       1.0  0.11472  0.69850  0.69924  1.0000
  H   H37       1.0  0.21197  0.55203  0.63772  1.0000
  H   H38       1.0  0.18680  0.70417  0.57220  1.0000
  H   H39       1.0  0.12828  0.39171  0.06504  1.0000
  H   H40       1.0  0.11752  0.53227  0.98581  1.0000
  H   H41       1.0  0.23835  0.38398  0.94944  1.0000
  H   H42       1.0  0.07139  0.36843  0.76036  1.0000
  H   H43       1.0  0.92790  0.50844  0.78483  1.0000
  H   H44       1.0  0.82093  0.34565  0.71917  1.0000
  C   C1        1.0  0.66644  0.07598  0.06651  1.0000
  C   C2        1.0  0.58868  0.07685  0.15752  1.0000
  C   C3        1.0  0.39403  0.06792  0.14764  1.0000
  C   C4        1.0  0.28799  0.06474  0.04426  1.0000
  C   C5        1.0  0.37664  0.06564  0.95779  1.0000
  C   C6        1.0  0.29928  0.05528  0.23838  1.0000
  C   C7        1.0  0.36036  0.12966  0.34063  1.0000
  C   C8        1.0  0.26092  0.11202  0.42193  1.0000
  C   C9        1.0  0.10081  0.02201  0.40484  1.0000
  C   C10       1.0  0.04072  0.94716  0.30260  1.0000
  C   C11       1.0  0.13948  0.96545  0.22124  1.0000
  C   C12       1.0  0.55769  0.31750  0.44708  1.0000
  C   C13       1.0  0.70772  0.41896  0.42781  1.0000
  C   C14       1.0  0.89191  0.35187  0.42554  1.0000
  C   C15       1.0  0.03287  0.43253  0.37786  1.0000
  C   C16       1.0  0.72854  0.54646  0.50915  1.0000
  C   C17       1.0  0.83884  0.76837  0.19053  1.0000
  C   C18       1.0  0.69684  0.65753  0.20392  1.0000
  C   C19       1.0  0.65128  0.55751  0.10068  1.0000
  C   C20       1.0  0.58214  0.41538  0.11755  1.0000
  C   C21       1.0  0.52088  0.71364  0.23520  1.0000
  C   C22       1.0  0.00271  0.00793  0.49407  1.0000
  C   C23       1.0  0.10418  0.01606  0.59896  1.0000
  C   C24       1.0  0.01092  0.00994  0.68327  1.0000
  C   C25       1.0  0.72500  0.98620  0.56982  1.0000
  C   C26       1.0  0.80756  0.99028  0.48092  1.0000
  C   C27       1.0  0.44985  0.66008  0.83878  1.0000
  C   C28       1.0  0.21420  0.66367  0.64939  1.0000
  C   C29       1.0  0.12197  0.42133  0.98457  1.0000
  C   C30       1.0  0.93700  0.39738  0.77884  1.0000
  S   S1        1.0  0.44626  0.72564  0.71354  1.0000
  S   S2        1.0  0.90855  0.34372  0.90466  1.0000
  N   N1        1.0  0.56268  0.06880  0.96756  1.0000
  N   N2        1.0  0.82430  0.99704  0.67013  1.0000
  N   N3        1.0  0.42649  0.28215  0.72910  1.0000
  N   N4        1.0  0.95449  0.78926  0.90077  1.0000
  O   O1        1.0  0.51156  0.22004  0.35212  1.0000
  O   O2        1.0  0.89022  0.85573  0.29023  1.0000
  O   O3        1.0  0.43326  0.31732  0.82720  1.0000
  O   O4        1.0  0.52362  0.18494  0.69920  1.0000
  O   O5        1.0  0.32739  0.33967  0.65827  1.0000
  O   O6        1.0  0.87738  0.89458  0.93584  1.0000
  O   O7        1.0  0.08461  0.74397  0.96294  1.0000
  O   O8        1.0  0.89745  0.73424  0.80607  1.0000
  O   O9        1.0  0.43485  0.87997  0.73709  1.0000
  O   O10       1.0  0.93680  0.19086  0.89606  1.0000
