data_image0
_chemical_formula_structural       Mn2H22C28N4O8
_chemical_formula_sum              "Mn2 H22 C28 N4 O8"
_cell_length_a       7.97081
_cell_length_b       9.53226
_cell_length_c       9.46533
_cell_angle_alpha    103.712
_cell_angle_beta     101.914
_cell_angle_gamma    101.941

_space_group_name_H-M_alt    "P 1"
_space_group_IT_number       1

loop_
  _space_group_symop_operation_xyz
  'x, y, z'

loop_
  _atom_site_type_symbol
  _atom_site_label
  _atom_site_symmetry_multiplicity
  _atom_site_fract_x
  _atom_site_fract_y
  _atom_site_fract_z
  _atom_site_occupancy
  Mn  Mn1       1.0  0.56876  0.53619  0.30331  1.0000
  Mn  Mn2       1.0  0.42850  0.71132  0.47124  1.0000
  H   H1        1.0  0.94903  0.67785  0.14172  1.0000
  H   H2        1.0  0.05121  0.85095  0.30217  1.0000
  H   H3        1.0  0.72234  0.69468  0.92928  1.0000
  H   H4        1.0  0.28538  0.06139  0.29533  1.0000
  H   H5        1.0  0.00305  0.50739  0.62512  1.0000
  H   H6        1.0  0.01133  0.36519  0.49136  1.0000
  H   H7        1.0  0.84067  0.37196  0.31198  1.0000
  H   H8        1.0  0.15620  0.69782  0.63989  1.0000
  H   H9        1.0  0.97226  0.20573  0.15082  1.0000
  H   H10       1.0  0.02276  0.85768  0.80564  1.0000
  H   H11       1.0  0.65067  0.28247  0.76682  1.0000
  H   H12       1.0  0.33755  0.23848  0.72180  1.0000
  H   H13       1.0  0.50608  0.42047  0.94330  1.0000
  H   H14       1.0  0.48084  0.06342  0.58005  1.0000
  H   H15       1.0  0.84118  0.00972  0.83757  1.0000
  H   H16       1.0  0.14993  0.16707  0.99866  1.0000
  H   H17       1.0  0.84362  0.12946  0.72162  1.0000
  H   H18       1.0  0.15095  0.28361  0.87953  1.0000
  H   H19       1.0  0.30224  0.52173  0.72189  1.0000
  H   H20       1.0  0.70885  0.27322  0.47076  1.0000
  H   H21       1.0  0.39874  0.56633  0.91524  1.0000
  H   H22       1.0  0.61144  0.08174  0.43397  1.0000
  C   C1        1.0  0.25634  0.61118  0.14659  1.0000
  C   C2        1.0  0.73763  0.85254  0.37049  1.0000
  C   C3        1.0  0.11984  0.60342  0.00943  1.0000
  C   C4        1.0  0.88275  0.98352  0.38056  1.0000
  C   C5        1.0  0.96556  0.64737  0.02834  1.0000
  C   C6        1.0  0.03715  0.96420  0.33649  1.0000
  C   C7        1.0  0.83418  0.65161  0.90892  1.0000
  C   C8        1.0  0.17292  0.08300  0.33717  1.0000
  C   C9        1.0  0.13684  0.55652  0.85960  1.0000
  C   C10       1.0  0.87014  0.13343  0.43322  1.0000
  C   C11       1.0  0.99222  0.54470  0.73938  1.0000
  C   C12       1.0  0.01758  0.25124  0.44839  1.0000
  C   C13       1.0  0.84651  0.59731  0.76066  1.0000
  C   C14       1.0  0.16418  0.23073  0.39669  1.0000
  C   C15       1.0  0.71901  0.60949  0.62767  1.0000
  C   C16       1.0  0.29485  0.37042  0.40137  1.0000
  C   C17       1.0  0.79672  0.34395  0.18991  1.0000
  C   C18       1.0  0.19723  0.81886  0.66526  1.0000
  C   C19       1.0  0.87220  0.25369  0.09877  1.0000
  C   C20       1.0  0.12124  0.90907  0.75564  1.0000
  C   C21       1.0  0.69110  0.29373  0.88694  1.0000
  C   C22       1.0  0.29852  0.11928  0.71087  1.0000
  C   C23       1.0  0.61447  0.37571  0.98504  1.0000
  C   C24       1.0  0.37482  0.02205  0.62794  1.0000
  C   C25       1.0  0.81966  0.22618  0.94193  1.0000
  C   C26       1.0  0.17216  0.06460  0.78097  1.0000
  C   C27       1.0  0.89380  0.12627  0.83762  1.0000
  C   C28       1.0  0.09857  0.16847  0.88167  1.0000
  N   N1        1.0  0.66594  0.40221  0.13532  1.0000
  N   N2        1.0  0.32550  0.87301  0.60423  1.0000
  N   N3        1.0  0.28758  0.52529  0.82730  1.0000
  N   N4        1.0  0.72280  0.16910  0.46893  1.0000
  O   O1        1.0  0.39329  0.56177  0.13259  1.0000
  O   O2        1.0  0.60441  0.87688  0.42033  1.0000
  O   O3        1.0  0.23235  0.66683  0.27533  1.0000
  O   O4        1.0  0.74786  0.71900  0.31413  1.0000
  O   O5        1.0  0.71321  0.52853  0.49516  1.0000
  O   O6        1.0  0.29653  0.49432  0.49232  1.0000
  O   O7        1.0  0.62612  0.70221  0.65018  1.0000
  O   O8        1.0  0.39264  0.36108  0.30897  1.0000
