data_image0
_chemical_formula_structural       CuH28C22N2O4
_chemical_formula_sum              "Cu1 H28 C22 N2 O4"
_cell_length_a       7.09164
_cell_length_b       8.65431
_cell_length_c       9.43524
_cell_angle_alpha    94.713
_cell_angle_beta     96.7181
_cell_angle_gamma    95.2172

_space_group_name_H-M_alt    "P 1"
_space_group_IT_number       1

loop_
  _space_group_symop_operation_xyz
  'x, y, z'

loop_
  _atom_site_type_symbol
  _atom_site_label
  _atom_site_symmetry_multiplicity
  _atom_site_fract_x
  _atom_site_fract_y
  _atom_site_fract_z
  _atom_site_occupancy
  Cu  Cu1       1.0  0.00000  1.00000  1.00000  1.0000
  H   H1        1.0  0.62414  0.48015  0.33613  1.0000
  H   H2        1.0  0.37586  0.51984  0.66385  1.0000
  H   H3        1.0  0.38157  0.45152  0.36720  1.0000
  H   H4        1.0  0.61844  0.54848  0.63280  1.0000
  H   H5        1.0  0.43914  0.50225  0.19731  1.0000
  H   H6        1.0  0.56084  0.49774  0.80268  1.0000
  H   H7        1.0  0.76643  0.28378  0.17722  1.0000
  H   H8        1.0  0.23357  0.71622  0.82276  1.0000
  H   H9        1.0  0.58691  0.30989  0.03499  1.0000
  H   H10       1.0  0.41307  0.69011  0.96501  1.0000
  H   H11       1.0  0.61912  0.12009  0.08366  1.0000
  H   H12       1.0  0.38088  0.87991  0.91632  1.0000
  H   H13       1.0  0.67633  0.20964  0.41617  1.0000
  H   H14       1.0  0.32370  0.79036  0.58383  1.0000
  H   H15       1.0  0.52811  0.04281  0.32916  1.0000
  H   H16       1.0  0.47191  0.95719  0.67084  1.0000
  H   H17       1.0  0.43343  0.18136  0.44508  1.0000
  H   H18       1.0  0.56660  0.81864  0.55492  1.0000
  H   H19       1.0  0.89891  0.03263  0.28869  1.0000
  H   H20       1.0  0.10109  0.96737  0.71130  1.0000
  H   H21       1.0  0.88629  0.86707  0.49482  1.0000
  H   H22       1.0  0.11371  0.13296  0.50519  1.0000
  H   H23       1.0  0.06585  0.49331  0.22396  1.0000
  H   H24       1.0  0.93413  0.50670  0.77606  1.0000
  H   H25       1.0  0.06325  0.67297  0.03001  1.0000
  H   H26       1.0  0.93673  0.32701  0.97000  1.0000
  H   H27       1.0  0.93653  0.63343  0.59787  1.0000
  H   H28       1.0  0.06346  0.36658  0.40215  1.0000
  C   C1        1.0  0.27614  0.19283  0.16806  1.0000
  C   C2        1.0  0.72385  0.80715  0.83194  1.0000
  C   C3        1.0  0.47840  0.26116  0.23543  1.0000
  C   C4        1.0  0.52161  0.73885  0.76457  1.0000
  C   C5        1.0  0.47985  0.43379  0.28717  1.0000
  C   C6        1.0  0.52015  0.56620  0.71283  1.0000
  C   C7        1.0  0.62117  0.24193  0.12653  1.0000
  C   C8        1.0  0.37882  0.75807  0.87346  1.0000
  C   C9        1.0  0.53170  0.16751  0.36401  1.0000
  C   C10       1.0  0.46832  0.83249  0.63598  1.0000
  C   C11       1.0  0.93286  0.91221  0.28030  1.0000
  C   C12       1.0  0.06712  0.08780  0.71969  1.0000
  C   C13       1.0  0.92783  0.82011  0.39363  1.0000
  C   C14       1.0  0.07217  0.17990  0.60638  1.0000
  C   C15       1.0  0.97768  0.66643  0.37839  1.0000
  C   C16       1.0  0.02232  0.33359  0.62162  1.0000
  C   C17       1.0  0.02664  0.61158  0.24397  1.0000
  C   C18       1.0  0.97336  0.38843  0.75604  1.0000
  C   C19       1.0  0.02709  0.71040  0.13569  1.0000
  C   C20       1.0  0.97289  0.28960  0.86432  1.0000
  C   C21       1.0  0.97717  0.57429  0.50049  1.0000
  C   C22       1.0  0.02285  0.42573  0.49953  1.0000
  N   N1        1.0  0.98301  0.85860  0.15365  1.0000
  N   N2        1.0  0.01698  0.14140  0.84635  1.0000
  O   O1        1.0  0.26875  0.07122  0.07808  1.0000
  O   O2        1.0  0.73125  0.92878  0.92193  1.0000
  O   O3        1.0  0.12958  0.25082  0.20325  1.0000
  O   O4        1.0  0.87043  0.74917  0.79675  1.0000
