data_image0
_chemical_formula_structural       Zn2H44C28I4N8
_chemical_formula_sum              "Zn2 H44 C28 I4 N8"
_cell_length_a       8.50225
_cell_length_b       8.49482
_cell_length_c       14.8328
_cell_angle_alpha    104.056
_cell_angle_beta     105.941
_cell_angle_gamma    95.5948

_space_group_name_H-M_alt    "P 1"
_space_group_IT_number       1

loop_
  _space_group_symop_operation_xyz
  'x, y, z'

loop_
  _atom_site_type_symbol
  _atom_site_label
  _atom_site_symmetry_multiplicity
  _atom_site_fract_x
  _atom_site_fract_y
  _atom_site_fract_z
  _atom_site_occupancy
  Zn  Zn1       1.0  0.32640  0.07613  0.25005  1.0000
  Zn  Zn2       1.0  0.67360  0.92387  0.74996  1.0000
  H   H1        1.0  0.78035  0.56328  0.49873  1.0000
  H   H2        1.0  0.56440  0.28165  0.00144  1.0000
  H   H3        1.0  0.21964  0.43672  0.50127  1.0000
  H   H4        1.0  0.43560  0.71835  0.99856  1.0000
  H   H5        1.0  0.88393  0.22495  0.61306  1.0000
  H   H6        1.0  0.11197  0.27063  0.88708  1.0000
  H   H7        1.0  0.11607  0.77505  0.38695  1.0000
  H   H8        1.0  0.88803  0.72937  0.11292  1.0000
  H   H9        1.0  0.99206  0.40623  0.60211  1.0000
  H   H10       1.0  0.30397  0.38990  0.89800  1.0000
  H   H11       1.0  0.00794  0.59377  0.39789  1.0000
  H   H12       1.0  0.69603  0.61010  0.10200  1.0000
  H   H13       1.0  0.00315  0.20872  0.53089  1.0000
  H   H14       1.0  0.17785  0.47229  0.96921  1.0000
  H   H15       1.0  0.99685  0.79128  0.46912  1.0000
  H   H16       1.0  0.82215  0.52771  0.03079  1.0000
  H   H17       1.0  0.52305  0.82018  0.47004  1.0000
  H   H18       1.0  0.85049  0.05325  0.03012  1.0000
  H   H19       1.0  0.47695  0.17983  0.52996  1.0000
  H   H20       1.0  0.14951  0.94674  0.96987  1.0000
  H   H21       1.0  0.38792  0.91451  0.39479  1.0000
  H   H22       1.0  0.01989  0.99284  0.10516  1.0000
  H   H23       1.0  0.61208  0.08550  0.60521  1.0000
  H   H24       1.0  0.98011  0.00716  0.89483  1.0000
  H   H25       1.0  0.76842  0.98483  0.47109  1.0000
  H   H26       1.0  0.01427  0.29770  0.02926  1.0000
  H   H27       1.0  0.23159  0.01517  0.52891  1.0000
  H   H28       1.0  0.98573  0.70229  0.97074  1.0000
  H   H29       1.0  0.63831  0.91529  0.34737  1.0000
  H   H30       1.0  0.06857  0.29095  0.15290  1.0000
  H   H31       1.0  0.36169  0.08472  0.65263  1.0000
  H   H32       1.0  0.93143  0.70904  0.84709  1.0000
  H   H33       1.0  0.48714  0.48376  0.26284  1.0000
  H   H34       1.0  0.72089  0.22409  0.23732  1.0000
  H   H35       1.0  0.51286  0.51624  0.73716  1.0000
  H   H36       1.0  0.27911  0.77591  0.76268  1.0000
  H   H37       1.0  0.48874  0.60665  0.37786  1.0000
  H   H38       1.0  0.72858  0.11060  0.12226  1.0000
  H   H39       1.0  0.51126  0.39335  0.62214  1.0000
  H   H40       1.0  0.27143  0.88940  0.87774  1.0000
  H   H41       1.0  0.33174  0.43098  0.31480  1.0000
  H   H42       1.0  0.61603  0.01658  0.18527  1.0000
  H   H43       1.0  0.66826  0.56903  0.68520  1.0000
  H   H44       1.0  0.38397  0.98342  0.81473  1.0000
  C   C1        1.0  0.77450  0.29678  0.48302  1.0000
  C   C2        1.0  0.31386  0.29149  0.01715  1.0000
  C   C3        1.0  0.22550  0.70322  0.51698  1.0000
  C   C4        1.0  0.68614  0.70851  0.98285  1.0000
  C   C5        1.0  0.72068  0.43641  0.46079  1.0000
  C   C6        1.0  0.47562  0.25992  0.03939  1.0000
  C   C7        1.0  0.27932  0.56359  0.53921  1.0000
  C   C8        1.0  0.52438  0.74009  0.96061  1.0000
  C   C9        1.0  0.92077  0.28266  0.56135  1.0000
  C   C10       1.0  0.22131  0.35934  0.93878  1.0000
  C   C11       1.0  0.07923  0.71735  0.43865  1.0000
  C   C12       1.0  0.77869  0.64066  0.06123  1.0000
  C   C13       1.0  0.50529  0.93848  0.45464  1.0000
  C   C14       1.0  0.98405  0.05064  0.04543  1.0000
  C   C15       1.0  0.49471  0.06152  0.54536  1.0000
  C   C16       1.0  0.01595  0.94935  0.95457  1.0000
  C   C17       1.0  0.57183  0.38052  0.38316  1.0000
  C   C18       1.0  0.49743  0.18863  0.11701  1.0000
  C   C19       1.0  0.42817  0.61948  0.61684  1.0000
  C   C20       1.0  0.50257  0.81137  0.88299  1.0000
  C   C21       1.0  0.65028  0.99361  0.42068  1.0000
  C   C22       1.0  0.07334  0.22967  0.07954  1.0000
  C   C23       1.0  0.34973  0.00639  0.57932  1.0000
  C   C24       1.0  0.92666  0.77032  0.92046  1.0000
  C   C25       1.0  0.46412  0.47976  0.33165  1.0000
  C   C26       1.0  0.64804  0.13225  0.16848  1.0000
  C   C27       1.0  0.53588  0.52024  0.66835  1.0000
  C   C28       1.0  0.35196  0.86775  0.83152  1.0000
  I   I1        1.0  0.08907  0.13075  0.32710  1.0000
  I   I2        1.0  0.30417  0.76161  0.17267  1.0000
  I   I3        1.0  0.91093  0.86925  0.67290  1.0000
  I   I4        1.0  0.69583  0.23839  0.82733  1.0000
  N   N1        1.0  0.53617  0.21410  0.35845  1.0000
  N   N2        1.0  0.35588  0.17766  0.14171  1.0000
  N   N3        1.0  0.46383  0.78590  0.64156  1.0000
  N   N4        1.0  0.64412  0.82234  0.85829  1.0000
  N   N5        1.0  0.66160  0.16476  0.41888  1.0000
  N   N6        1.0  0.24612  0.24269  0.08128  1.0000
  N   N7        1.0  0.33840  0.83524  0.58112  1.0000
  N   N8        1.0  0.75388  0.75730  0.91872  1.0000
