data_image0
_chemical_formula_structural       Cu2H36C28S4N4Cl4O4
_chemical_formula_sum              "Cu2 H36 C28 S4 N4 Cl4 O4"
_cell_length_a       5.34552
_cell_length_b       10.6824
_cell_length_c       14.4985
_cell_angle_alpha    93.6751
_cell_angle_beta     90.0004
_cell_angle_gamma    90.0007

_space_group_name_H-M_alt    "P 1"
_space_group_IT_number       1

loop_
  _space_group_symop_operation_xyz
  'x, y, z'

loop_
  _atom_site_type_symbol
  _atom_site_label
  _atom_site_symmetry_multiplicity
  _atom_site_fract_x
  _atom_site_fract_y
  _atom_site_fract_z
  _atom_site_occupancy
  Cu  Cu1       1.0  0.00000  0.00000  0.00000  1.0000
  Cu  Cu2       1.0  0.50001  1.00000  0.50000  1.0000
  H   H1        1.0  0.39617  0.12887  0.97467  1.0000
  H   H2        1.0  0.89617  0.87113  0.52533  1.0000
  H   H3        1.0  0.60383  0.87113  0.02533  1.0000
  H   H4        1.0  0.10384  0.12887  0.47467  1.0000
  H   H5        1.0  0.21878  0.01701  0.21155  1.0000
  H   H6        1.0  0.71878  0.98299  0.28845  1.0000
  H   H7        1.0  0.78123  0.98298  0.78845  1.0000
  H   H8        1.0  0.28122  0.01702  0.71155  1.0000
  H   H9        1.0  0.34067  0.15318  0.27671  1.0000
  H   H10       1.0  0.84066  0.84682  0.22329  1.0000
  H   H11       1.0  0.65935  0.84682  0.72329  1.0000
  H   H12       1.0  0.15935  0.15318  0.77671  1.0000
  H   H13       1.0  0.05882  0.16415  0.20562  1.0000
  H   H14       1.0  0.55882  0.83585  0.29438  1.0000
  H   H15       1.0  0.94119  0.83585  0.79438  1.0000
  H   H16       1.0  0.44119  0.16414  0.70562  1.0000
  H   H17       1.0  0.81796  0.31951  0.19730  1.0000
  H   H18       1.0  0.31795  0.68050  0.30270  1.0000
  H   H19       1.0  0.18204  0.68049  0.80271  1.0000
  H   H20       1.0  0.68205  0.31949  0.69730  1.0000
  H   H21       1.0  0.85332  0.55213  0.20045  1.0000
  H   H22       1.0  0.35330  0.44787  0.29954  1.0000
  H   H23       1.0  0.14669  0.44787  0.79955  1.0000
  H   H24       1.0  0.64665  0.55211  0.70045  1.0000
  H   H25       1.0  0.51604  0.67696  0.12957  1.0000
  H   H26       1.0  0.01602  0.32304  0.37042  1.0000
  H   H27       1.0  0.48398  0.32304  0.87042  1.0000
  H   H28       1.0  0.98391  0.67696  0.62957  1.0000
  H   H29       1.0  0.15122  0.57134  0.05696  1.0000
  H   H30       1.0  0.65121  0.42866  0.44304  1.0000
  H   H31       1.0  0.84880  0.42866  0.94304  1.0000
  H   H32       1.0  0.34876  0.57135  0.55696  1.0000
  H   H33       1.0  0.12086  0.33540  0.04945  1.0000
  H   H34       1.0  0.62086  0.66460  0.45055  1.0000
  H   H35       1.0  0.87915  0.66460  0.95055  1.0000
  H   H36       1.0  0.37913  0.33541  0.54945  1.0000
  C   C1        1.0  0.24066  0.11931  0.21375  1.0000
  C   C2        1.0  0.74067  0.88069  0.28625  1.0000
  C   C3        1.0  0.75935  0.88069  0.78625  1.0000
  C   C4        1.0  0.25935  0.11931  0.71375  1.0000
  C   C5        1.0  0.46693  0.31625  0.12363  1.0000
  C   C6        1.0  0.96694  0.68375  0.37637  1.0000
  C   C7        1.0  0.53307  0.68376  0.87637  1.0000
  C   C8        1.0  0.03306  0.31625  0.62363  1.0000
  C   C9        1.0  0.67394  0.37493  0.16612  1.0000
  C   C10       1.0  0.17392  0.62508  0.33387  1.0000
  C   C11       1.0  0.32607  0.62507  0.83388  1.0000
  C   C12       1.0  0.82607  0.37492  0.66613  1.0000
  C   C13       1.0  0.69174  0.50541  0.16807  1.0000
  C   C14       1.0  0.19173  0.49459  0.33192  1.0000
  C   C15       1.0  0.30827  0.49459  0.83193  1.0000
  C   C16       1.0  0.80824  0.50540  0.66808  1.0000
  C   C17       1.0  0.50330  0.57504  0.12877  1.0000
  C   C18       1.0  0.00328  0.42497  0.37124  1.0000
  C   C19       1.0  0.49671  0.42496  0.87124  1.0000
  C   C20       1.0  0.99668  0.57503  0.62876  1.0000
  C   C21       1.0  0.29574  0.51514  0.08742  1.0000
  C   C22       1.0  0.79573  0.48486  0.41257  1.0000
  C   C23       1.0  0.70427  0.48486  0.91258  1.0000
  C   C24       1.0  0.20424  0.51514  0.58742  1.0000
  C   C25       1.0  0.27675  0.38484  0.08398  1.0000
  C   C26       1.0  0.77674  0.61516  0.41602  1.0000
  C   C27       1.0  0.72327  0.61516  0.91602  1.0000
  C   C28       1.0  0.22325  0.38485  0.58398  1.0000
  S   S1        1.0  0.43897  0.14952  0.12074  1.0000
  S   S2        1.0  0.93897  0.85048  0.37926  1.0000
  S   S3        1.0  0.56104  0.85048  0.87926  1.0000
  S   S4        1.0  0.06104  0.14952  0.62074  1.0000
  N   N1        1.0  0.29364  0.10737  0.03161  1.0000
  N   N2        1.0  0.79365  0.89262  0.46839  1.0000
  N   N3        1.0  0.70636  0.89263  0.96839  1.0000
  N   N4        1.0  0.20637  0.10737  0.53161  1.0000
  Cl  Cl1       1.0  0.15176  0.83811  0.08547  1.0000
  Cl  Cl2       1.0  0.65177  0.16189  0.41453  1.0000
  Cl  Cl3       1.0  0.84824  0.16189  0.91453  1.0000
  Cl  Cl4       1.0  0.34824  0.83811  0.58547  1.0000
  O   O1        1.0  0.68725  0.09863  0.13932  1.0000
  O   O2        1.0  0.18726  0.90137  0.36068  1.0000
  O   O3        1.0  0.31276  0.90137  0.86068  1.0000
  O   O4        1.0  0.81277  0.09862  0.63932  1.0000
