data_image0
_chemical_formula_structural       Nd2H32C16Cl6O4
_chemical_formula_sum              "Nd2 H32 C16 Cl6 O4"
_cell_length_a       8.16239
_cell_length_b       8.58839
_cell_length_c       9.73472
_cell_angle_alpha    79.1732
_cell_angle_beta     70.7872
_cell_angle_gamma    82.3184

_space_group_name_H-M_alt    "P 1"
_space_group_IT_number       1

loop_
  _space_group_symop_operation_xyz
  'x, y, z'

loop_
  _atom_site_type_symbol
  _atom_site_label
  _atom_site_symmetry_multiplicity
  _atom_site_fract_x
  _atom_site_fract_y
  _atom_site_fract_z
  _atom_site_occupancy
  Nd  Nd1       1.0  0.99585  0.23529  0.07820  1.0000
  Nd  Nd2       1.0  0.00415  0.76471  0.92181  1.0000
  H   H1        1.0  0.23515  0.16928  0.76856  1.0000
  H   H2        1.0  0.76485  0.83072  0.23144  1.0000
  H   H3        1.0  0.43149  0.07515  0.79862  1.0000
  H   H4        1.0  0.56851  0.92485  0.20138  1.0000
  H   H5        1.0  0.37114  0.41566  0.64456  1.0000
  H   H6        1.0  0.62886  0.58434  0.35543  1.0000
  H   H7        1.0  0.54317  0.27219  0.57456  1.0000
  H   H8        1.0  0.45683  0.72781  0.42544  1.0000
  H   H9        1.0  0.58914  0.49768  0.72510  1.0000
  H   H10       1.0  0.41086  0.50232  0.27490  1.0000
  H   H11       1.0  0.68866  0.30121  0.74842  1.0000
  H   H12       1.0  0.31134  0.69879  0.25158  1.0000
  H   H13       1.0  0.51842  0.27322  0.99465  1.0000
  H   H14       1.0  0.48158  0.72678  0.00535  1.0000
  H   H15       1.0  0.38658  0.45368  0.96458  1.0000
  H   H16       1.0  0.61342  0.54633  0.03542  1.0000
  H   H17       1.0  0.86899  0.16910  0.52522  1.0000
  H   H18       1.0  0.13101  0.83090  0.47479  1.0000
  H   H19       1.0  0.88279  0.35901  0.41048  1.0000
  H   H20       1.0  0.11721  0.64098  0.58953  1.0000
  H   H21       1.0  0.04081  0.29645  0.62757  1.0000
  H   H22       1.0  0.95919  0.70355  0.37243  1.0000
  H   H23       1.0  0.14807  0.40404  0.45193  1.0000
  H   H24       1.0  0.85193  0.59595  0.54807  1.0000
  H   H25       1.0  0.19400  0.04356  0.55193  1.0000
  H   H26       1.0  0.80600  0.95644  0.44807  1.0000
  H   H27       1.0  0.36214  0.17653  0.47242  1.0000
  H   H28       1.0  0.63786  0.82347  0.52758  1.0000
  H   H29       1.0  0.32055  0.22012  0.23614  1.0000
  H   H30       1.0  0.67945  0.77988  0.76386  1.0000
  H   H31       1.0  0.27323  0.01574  0.29125  1.0000
  H   H32       1.0  0.72677  0.98426  0.70875  1.0000
  C   C1        1.0  0.35541  0.19002  0.78727  1.0000
  C   C2        1.0  0.64459  0.80998  0.21273  1.0000
  C   C3        1.0  0.45971  0.31732  0.67506  1.0000
  C   C4        1.0  0.54028  0.68268  0.32493  1.0000
  C   C5        1.0  0.56386  0.37198  0.76084  1.0000
  C   C6        1.0  0.43614  0.62802  0.23916  1.0000
  C   C7        1.0  0.44833  0.34382  0.92189  1.0000
  C   C8        1.0  0.55167  0.65618  0.07811  1.0000
  C   C9        1.0  0.95834  0.25411  0.44769  1.0000
  C   C10       1.0  0.04166  0.74589  0.55231  1.0000
  C   C11       1.0  0.09468  0.29013  0.50955  1.0000
  C   C12       1.0  0.90531  0.70987  0.49045  1.0000
  C   C13       1.0  0.23344  0.15211  0.47342  1.0000
  C   C14       1.0  0.76656  0.84789  0.52658  1.0000
  C   C15       1.0  0.23611  0.13567  0.32024  1.0000
  C   C16       1.0  0.76389  0.86433  0.67976  1.0000
  Cl  Cl1       1.0  0.93913  0.47606  0.85645  1.0000
  Cl  Cl2       1.0  0.06087  0.52394  0.14355  1.0000
  Cl  Cl3       1.0  0.67079  0.24229  0.25517  1.0000
  Cl  Cl4       1.0  0.32921  0.75771  0.74484  1.0000
  Cl  Cl5       1.0  0.87807  0.08517  0.89407  1.0000
  Cl  Cl6       1.0  0.12193  0.91483  0.10593  1.0000
  O   O1        1.0  0.30576  0.25350  0.92551  1.0000
  O   O2        1.0  0.69424  0.74650  0.07449  1.0000
  O   O3        1.0  0.05613  0.17714  0.31862  1.0000
  O   O4        1.0  0.94387  0.82286  0.68138  1.0000
