data_image0
_chemical_formula_structural       Zn2Mo4H16C16S4N4O14
_chemical_formula_sum              "Zn2 Mo4 H16 C16 S4 N4 O14"
_cell_length_a       7.35287
_cell_length_b       10.1309
_cell_length_c       10.373
_cell_angle_alpha    105.465
_cell_angle_beta     102.646
_cell_angle_gamma    104.884

_space_group_name_H-M_alt    "P 1"
_space_group_IT_number       1

loop_
  _space_group_symop_operation_xyz
  'x, y, z'

loop_
  _atom_site_type_symbol
  _atom_site_label
  _atom_site_symmetry_multiplicity
  _atom_site_fract_x
  _atom_site_fract_y
  _atom_site_fract_z
  _atom_site_occupancy
  Zn  Zn1       1.0  0.99118  0.68306  0.75425  1.0000
  Zn  Zn2       1.0  0.00883  0.31694  0.24576  1.0000
  Mo  Mo1       1.0  0.83567  0.36109  0.52297  1.0000
  Mo  Mo2       1.0  0.16433  0.63891  0.47704  1.0000
  Mo  Mo3       1.0  0.51932  0.46253  0.33794  1.0000
  Mo  Mo4       1.0  0.48068  0.53746  0.66206  1.0000
  H   H1        1.0  0.76710  0.97227  0.50798  1.0000
  H   H2        1.0  0.23288  0.02771  0.49200  1.0000
  H   H3        1.0  0.66630  0.82469  0.56179  1.0000
  H   H4        1.0  0.33371  0.17529  0.43820  1.0000
  H   H5        1.0  0.85471  0.82033  0.48305  1.0000
  H   H6        1.0  0.14528  0.17965  0.51694  1.0000
  H   H7        1.0  0.27006  0.23569  0.01262  1.0000
  H   H8        1.0  0.72992  0.76432  0.98737  1.0000
  H   H9        1.0  0.44166  0.11458  0.19728  1.0000
  H   H10       1.0  0.55833  0.88544  0.80273  1.0000
  H   H11       1.0  0.18084  0.51389  0.91112  1.0000
  H   H12       1.0  0.81919  0.48613  0.08890  1.0000
  H   H13       1.0  0.18057  0.53859  0.08923  1.0000
  H   H14       1.0  0.81945  0.46141  0.91077  1.0000
  H   H15       1.0  0.40598  0.56451  0.05107  1.0000
  H   H16       1.0  0.59406  0.43551  0.94894  1.0000
  C   C1        1.0  0.28504  0.73380  0.04619  1.0000
  C   C2        1.0  0.71496  0.26621  0.95380  1.0000
  C   C3        1.0  0.80311  0.89302  0.55368  1.0000
  C   C4        1.0  0.19688  0.10697  0.44631  1.0000
  C   C5        1.0  0.95337  0.96691  0.69428  1.0000
  C   C6        1.0  0.04661  0.03308  0.30572  1.0000
  C   C7        1.0  0.18291  0.14025  0.92078  1.0000
  C   C8        1.0  0.81706  0.85973  0.07921  1.0000
  C   C9        1.0  0.15828  0.99703  0.90461  1.0000
  C   C10       1.0  0.84171  0.00300  0.09539  1.0000
  C   C11       1.0  0.24579  0.93334  0.00172  1.0000
  C   C12       1.0  0.75420  0.06666  0.99828  1.0000
  C   C13       1.0  0.37514  0.99929  0.13602  1.0000
  C   C14       1.0  0.62484  0.00072  0.86397  1.0000
  C   C15       1.0  0.26115  0.57836  0.02195  1.0000
  C   C16       1.0  0.73888  0.42165  0.97806  1.0000
  S   S1        1.0  0.04358  0.15322  0.77293  1.0000
  S   S2        1.0  0.95639  0.84677  0.22706  1.0000
  S   S3        1.0  0.43342  0.87176  0.20086  1.0000
  S   S4        1.0  0.56657  0.12825  0.79913  1.0000
  N   N1        1.0  0.02986  0.90104  0.77532  1.0000
  N   N2        1.0  0.97012  0.09895  0.22468  1.0000
  N   N3        1.0  0.19639  0.78309  0.95310  1.0000
  N   N4        1.0  0.80360  0.21692  0.04689  1.0000
  O   O1        1.0  0.58116  0.42035  0.52870  1.0000
  O   O2        1.0  0.41885  0.57964  0.47130  1.0000
  O   O3        1.0  0.68398  0.34975  0.32481  1.0000
  O   O4        1.0  0.31603  0.65025  0.67520  1.0000
  O   O5        1.0  0.94465  0.62028  0.53523  1.0000
  O   O6        1.0  0.05536  0.37972  0.46478  1.0000
  O   O7        1.0  0.61466  0.59225  0.27046  1.0000
  O   O8        1.0  0.38534  0.40776  0.72955  1.0000
  O   O9        1.0  0.28893  0.34616  0.21680  1.0000
  O   O10       1.0  0.71107  0.65383  0.78320  1.0000
  O   O11       1.0  0.93378  0.46282  0.70698  1.0000
  O   O12       1.0  0.06623  0.53719  0.29302  1.0000
  O   O13       1.0  0.74797  0.18243  0.50908  1.0000
  O   O14       1.0  0.25203  0.81756  0.49092  1.0000
