data_image0
_chemical_formula_structural       Cu4H24C36S12N20
_chemical_formula_sum              "Cu4 H24 C36 S12 N20"
_cell_length_a       8.39096
_cell_length_b       11.0771
_cell_length_c       13.7887
_cell_angle_alpha    90.0002
_cell_angle_beta     90.0001
_cell_angle_gamma    111.149

_space_group_name_H-M_alt    "P 1"
_space_group_IT_number       1

loop_
  _space_group_symop_operation_xyz
  'x, y, z'

loop_
  _atom_site_type_symbol
  _atom_site_label
  _atom_site_symmetry_multiplicity
  _atom_site_fract_x
  _atom_site_fract_y
  _atom_site_fract_z
  _atom_site_occupancy
  Cu  Cu1       1.0  0.75033  0.60449  0.74551  1.0000
  Cu  Cu2       1.0  0.24967  0.89551  0.24551  1.0000
  Cu  Cu3       1.0  0.24966  0.39551  0.25449  1.0000
  Cu  Cu4       1.0  0.75033  0.10449  0.75449  1.0000
  H   H1        1.0  0.00707  0.02963  0.19145  1.0000
  H   H2        1.0  0.99293  0.47037  0.69145  1.0000
  H   H3        1.0  0.99293  0.97037  0.80855  1.0000
  H   H4        1.0  0.00707  0.52963  0.30855  1.0000
  H   H5        1.0  0.76360  0.06827  0.27674  1.0000
  H   H6        1.0  0.23640  0.43173  0.77675  1.0000
  H   H7        1.0  0.23640  0.93173  0.72325  1.0000
  H   H8        1.0  0.76360  0.56827  0.22325  1.0000
  H   H9        1.0  0.66490  0.95247  0.43701  1.0000
  H   H10       1.0  0.33510  0.54752  0.93702  1.0000
  H   H11       1.0  0.33510  0.04753  0.56299  1.0000
  H   H12       1.0  0.66490  0.45247  0.06298  1.0000
  H   H13       1.0  0.49870  0.35589  0.65161  1.0000
  H   H14       1.0  0.50130  0.14411  0.15161  1.0000
  H   H15       1.0  0.50129  0.64412  0.34839  1.0000
  H   H16       1.0  0.49870  0.85589  0.84839  1.0000
  H   H17       1.0  0.43596  0.26537  0.48166  1.0000
  H   H18       1.0  0.56404  0.23463  0.98166  1.0000
  H   H19       1.0  0.56404  0.73463  0.51834  1.0000
  H   H20       1.0  0.43597  0.76537  0.01834  1.0000
  H   H21       1.0  0.64184  0.38585  0.34959  1.0000
  H   H22       1.0  0.35816  0.11414  0.84959  1.0000
  H   H23       1.0  0.35817  0.61414  0.65042  1.0000
  H   H24       1.0  0.64184  0.88585  0.15042  1.0000
  C   C1        1.0  0.98261  0.85993  0.38972  1.0000
  C   C2        1.0  0.01740  0.64007  0.88973  1.0000
  C   C3        1.0  0.01740  0.14007  0.61028  1.0000
  C   C4        1.0  0.98260  0.35993  0.11027  1.0000
  C   C5        1.0  0.96108  0.98668  0.26193  1.0000
  C   C6        1.0  0.03893  0.51331  0.76193  1.0000
  C   C7        1.0  0.03892  0.01332  0.73807  1.0000
  C   C8        1.0  0.96107  0.48668  0.23807  1.0000
  C   C9        1.0  0.82629  0.00714  0.30857  1.0000
  C   C10       1.0  0.17372  0.49286  0.80858  1.0000
  C   C11       1.0  0.17372  0.99286  0.69142  1.0000
  C   C12       1.0  0.82628  0.50713  0.19142  1.0000
  C   C13       1.0  0.77265  0.94398  0.39676  1.0000
  C   C14       1.0  0.22735  0.55602  0.89677  1.0000
  C   C15       1.0  0.22735  0.05602  0.60324  1.0000
  C   C16       1.0  0.77264  0.44397  0.10323  1.0000
  C   C17       1.0  0.58089  0.40087  0.59044  1.0000
  C   C18       1.0  0.41911  0.09913  0.09043  1.0000
  C   C19       1.0  0.41911  0.59913  0.40957  1.0000
  C   C20       1.0  0.58088  0.90087  0.90956  1.0000
  C   C21       1.0  0.54710  0.35132  0.49714  1.0000
  C   C22       1.0  0.45290  0.14868  0.99715  1.0000
  C   C23       1.0  0.45291  0.64868  0.50285  1.0000
  C   C24       1.0  0.54711  0.85132  0.00286  1.0000
  C   C25       1.0  0.65970  0.41894  0.42469  1.0000
  C   C26       1.0  0.34029  0.08106  0.92469  1.0000
  C   C27       1.0  0.34030  0.58106  0.57531  1.0000
  C   C28       1.0  0.65971  0.91894  0.07530  1.0000
  C   C29       1.0  0.81584  0.56736  0.53457  1.0000
  C   C30       1.0  0.18416  0.93264  0.03457  1.0000
  C   C31       1.0  0.18416  0.43264  0.46544  1.0000
  C   C32       1.0  0.81584  0.06736  0.96543  1.0000
  C   C33       1.0  0.62747  0.32447  0.80605  1.0000
  C   C34       1.0  0.37252  0.17554  0.30604  1.0000
  C   C35       1.0  0.37253  0.67554  0.19396  1.0000
  C   C36       1.0  0.62748  0.82447  0.69395  1.0000
  S   S1        1.0  0.10784  0.77537  0.43873  1.0000
  S   S2        1.0  0.89216  0.72463  0.93874  1.0000
  S   S3        1.0  0.89216  0.22463  0.56127  1.0000
  S   S4        1.0  0.10784  0.27537  0.06126  1.0000
  S   S5        1.0  0.98531  0.71080  0.56851  1.0000
  S   S6        1.0  0.01469  0.78921  0.06851  1.0000
  S   S7        1.0  0.01469  0.28921  0.43149  1.0000
  S   S8        1.0  0.98531  0.21079  0.93149  1.0000
  S   S9        1.0  0.55351  0.43437  0.84234  1.0000
  S   S10       1.0  0.44649  0.06563  0.34233  1.0000
  S   S11       1.0  0.44649  0.56563  0.15767  1.0000
  S   S12       1.0  0.55351  0.93438  0.65766  1.0000
  N   N1        1.0  0.85081  0.87011  0.43758  1.0000
  N   N2        1.0  0.14919  0.62989  0.93758  1.0000
  N   N3        1.0  0.14920  0.12989  0.56242  1.0000
  N   N4        1.0  0.85080  0.37010  0.06242  1.0000
  N   N5        1.0  0.71640  0.50853  0.61059  1.0000
  N   N6        1.0  0.28360  0.99146  0.11059  1.0000
  N   N7        1.0  0.28360  0.49147  0.38941  1.0000
  N   N8        1.0  0.71640  0.00854  0.88942  1.0000
  N   N9        1.0  0.67840  0.24395  0.77811  1.0000
  N   N10       1.0  0.32160  0.25605  0.27811  1.0000
  N   N11       1.0  0.32160  0.75605  0.22189  1.0000
  N   N12       1.0  0.67840  0.74396  0.72189  1.0000
  N   N13       1.0  0.03949  0.91154  0.30151  1.0000
  N   N14       1.0  0.96052  0.58846  0.80151  1.0000
  N   N15       1.0  0.96052  0.08846  0.69849  1.0000
  N   N16       1.0  0.03948  0.41154  0.19849  1.0000
  N   N17       1.0  0.79337  0.52790  0.44267  1.0000
  N   N18       1.0  0.20663  0.97210  0.94268  1.0000
  N   N19       1.0  0.20663  0.47210  0.55733  1.0000
  N   N20       1.0  0.79337  0.02790  0.05733  1.0000
