data_image0
_chemical_formula_structural       Bi2H24C36N6O12
_chemical_formula_sum              "Bi2 H24 C36 N6 O12"
_cell_length_a       7.74667
_cell_length_b       10.952
_cell_length_c       11.1553
_cell_angle_alpha    116.434
_cell_angle_beta     89.9997
_cell_angle_gamma    90.0002

_space_group_name_H-M_alt    "P 1"
_space_group_IT_number       1

loop_
  _space_group_symop_operation_xyz
  'x, y, z'

loop_
  _atom_site_type_symbol
  _atom_site_label
  _atom_site_symmetry_multiplicity
  _atom_site_fract_x
  _atom_site_fract_y
  _atom_site_fract_z
  _atom_site_occupancy
  Bi  Bi1       1.0  0.26000  0.47833  0.53971  1.0000
  Bi  Bi2       1.0  0.76001  0.52167  0.46029  1.0000
  H   H1        1.0  0.50209  0.94547  0.34459  1.0000
  H   H2        1.0  0.00209  0.05453  0.65541  1.0000
  H   H3        1.0  0.22022  0.82071  0.31506  1.0000
  H   H4        1.0  0.72022  0.17928  0.68494  1.0000
  H   H5        1.0  0.94244  0.95886  0.35587  1.0000
  H   H6        1.0  0.44244  0.04113  0.64412  1.0000
  H   H7        1.0  0.96264  0.20695  0.43229  1.0000
  H   H8        1.0  0.46264  0.79305  0.56771  1.0000
  H   H9        1.0  0.49807  0.89859  0.02123  1.0000
  H   H10       1.0  0.99807  0.10141  0.97876  1.0000
  H   H11       1.0  0.21191  0.99910  0.12915  1.0000
  H   H12       1.0  0.71191  0.00090  0.87085  1.0000
  H   H13       1.0  0.93944  0.88491  0.00538  1.0000
  H   H14       1.0  0.43943  0.11509  0.99462  1.0000
  H   H15       1.0  0.96353  0.68831  0.78198  1.0000
  H   H16       1.0  0.46353  0.31169  0.21802  1.0000
  H   H17       1.0  0.00407  0.34198  0.91513  1.0000
  H   H18       1.0  0.50407  0.65801  0.08488  1.0000
  H   H19       1.0  0.28236  0.31379  0.01595  1.0000
  H   H20       1.0  0.78236  0.68621  0.98406  1.0000
  H   H21       1.0  0.56355  0.34197  0.91306  1.0000
  H   H22       1.0  0.06355  0.65803  0.08694  1.0000
  H   H23       1.0  0.55077  0.40086  0.72211  1.0000
  H   H24       1.0  0.05078  0.59914  0.27789  1.0000
  C   C1        1.0  0.37891  0.13883  0.40596  1.0000
  C   C2        1.0  0.87891  0.86117  0.59405  1.0000
  C   C3        1.0  0.37858  0.99813  0.36333  1.0000
  C   C4        1.0  0.87858  0.00187  0.63667  1.0000
  C   C5        1.0  0.22153  0.93027  0.34654  1.0000
  C   C6        1.0  0.72153  0.06973  0.65345  1.0000
  C   C7        1.0  0.06955  0.00565  0.36976  1.0000
  C   C8        1.0  0.56955  0.99435  0.63024  1.0000
  C   C9        1.0  0.07994  0.14618  0.41283  1.0000
  C   C10       1.0  0.57994  0.85382  0.58717  1.0000
  C   C11       1.0  0.54760  0.21458  0.42369  1.0000
  C   C12       1.0  0.04761  0.78542  0.57631  1.0000
  C   C13       1.0  0.37787  0.74707  0.84487  1.0000
  C   C14       1.0  0.87788  0.25293  0.15513  1.0000
  C   C15       1.0  0.37565  0.85636  0.97273  1.0000
  C   C16       1.0  0.87566  0.14364  0.02726  1.0000
  C   C17       1.0  0.21743  0.90983  0.03238  1.0000
  C   C18       1.0  0.71743  0.09017  0.96762  1.0000
  C   C19       1.0  0.06678  0.84822  0.96385  1.0000
  C   C20       1.0  0.56678  0.15178  0.03615  1.0000
  C   C21       1.0  0.07959  0.73731  0.83768  1.0000
  C   C22       1.0  0.57960  0.26269  0.16232  1.0000
  C   C23       1.0  0.54733  0.69441  0.77324  1.0000
  C   C24       1.0  0.04734  0.30559  0.22675  1.0000
  C   C25       1.0  0.13185  0.38675  0.76928  1.0000
  C   C26       1.0  0.63185  0.61325  0.23072  1.0000
  C   C27       1.0  0.12870  0.35326  0.87610  1.0000
  C   C28       1.0  0.62871  0.64674  0.12390  1.0000
  C   C29       1.0  0.28418  0.33736  0.93074  1.0000
  C   C30       1.0  0.78418  0.66264  0.06927  1.0000
  C   C31       1.0  0.43841  0.35345  0.87481  1.0000
  C   C32       1.0  0.93841  0.64655  0.12519  1.0000
  C   C33       1.0  0.43274  0.38624  0.76751  1.0000
  C   C34       1.0  0.93274  0.61376  0.23249  1.0000
  C   C35       1.0  0.96551  0.40912  0.71018  1.0000
  C   C36       1.0  0.46552  0.59088  0.28982  1.0000
  N   N1        1.0  0.23158  0.21154  0.43196  1.0000
  N   N2        1.0  0.73158  0.78846  0.56804  1.0000
  N   N3        1.0  0.23194  0.68859  0.77895  1.0000
  N   N4        1.0  0.73195  0.31141  0.22105  1.0000
  N   N5        1.0  0.28213  0.40282  0.71715  1.0000
  N   N6        1.0  0.78213  0.59718  0.28285  1.0000
  O   O1        1.0  0.68522  0.14959  0.39467  1.0000
  O   O2        1.0  0.18522  0.85041  0.60533  1.0000
  O   O3        1.0  0.53330  0.34583  0.46834  1.0000
  O   O4        1.0  0.03330  0.65417  0.53166  1.0000
  O   O5        1.0  0.68491  0.74611  0.83171  1.0000
  O   O6        1.0  0.18491  0.25389  0.16829  1.0000
  O   O7        1.0  0.53442  0.59871  0.65220  1.0000
  O   O8        1.0  0.03442  0.40129  0.34780  1.0000
  O   O9        1.0  0.82605  0.39239  0.75556  1.0000
  O   O10       1.0  0.32605  0.60762  0.24444  1.0000
  O   O11       1.0  0.98298  0.44600  0.61494  1.0000
  O   O12       1.0  0.48298  0.55400  0.38506  1.0000
