data_image0
_chemical_formula_structural       Gd4H24C24O32
_chemical_formula_sum              "Gd4 H24 C24 O32"
_cell_length_a       8.38879
_cell_length_b       10.404
_cell_length_c       10.6789
_cell_angle_alpha    115.771
_cell_angle_beta     89.9661
_cell_angle_gamma    89.9895

_space_group_name_H-M_alt    "P 1"
_space_group_IT_number       1

loop_
  _space_group_symop_operation_xyz
  'x, y, z'

loop_
  _atom_site_type_symbol
  _atom_site_label
  _atom_site_symmetry_multiplicity
  _atom_site_fract_x
  _atom_site_fract_y
  _atom_site_fract_z
  _atom_site_occupancy
  Gd  Gd1       1.0  0.02259  0.12854  0.30223  1.0000
  Gd  Gd2       1.0  0.52220  0.37147  0.69782  1.0000
  Gd  Gd3       1.0  0.97743  0.87144  0.69773  1.0000
  Gd  Gd4       1.0  0.47782  0.62856  0.30230  1.0000
  H   H1        1.0  0.90433  0.58851  0.19656  1.0000
  H   H2        1.0  0.40361  0.91157  0.80353  1.0000
  H   H3        1.0  0.09569  0.41162  0.80348  1.0000
  H   H4        1.0  0.59631  0.08849  0.19658  1.0000
  H   H5        1.0  0.10051  0.58660  0.13059  1.0000
  H   H6        1.0  0.59969  0.91326  0.86944  1.0000
  H   H7        1.0  0.89947  0.41332  0.86937  1.0000
  H   H8        1.0  0.40026  0.08668  0.13066  1.0000
  H   H9        1.0  0.99330  0.67114  0.96976  1.0000
  H   H10       1.0  0.49214  0.82918  0.03021  1.0000
  H   H11       1.0  0.00640  0.32866  0.03013  1.0000
  H   H12       1.0  0.50802  0.17068  0.96981  1.0000
  H   H13       1.0  0.79734  0.68380  0.03070  1.0000
  H   H14       1.0  0.29618  0.81595  0.96925  1.0000
  H   H15       1.0  0.20250  0.31644  0.96948  1.0000
  H   H16       1.0  0.70387  0.18416  0.03100  1.0000
  H   H17       1.0  0.15815  0.42158  0.48524  1.0000
  H   H18       1.0  0.65802  0.07849  0.51466  1.0000
  H   H19       1.0  0.84185  0.57844  0.51461  1.0000
  H   H20       1.0  0.34186  0.92158  0.48532  1.0000
  H   H21       1.0  0.18962  0.39490  0.33202  1.0000
  H   H22       1.0  0.68941  0.10504  0.66781  1.0000
  H   H23       1.0  0.81058  0.60488  0.66777  1.0000
  H   H24       1.0  0.31062  0.89486  0.33212  1.0000
  C   C1        1.0  0.08486  0.68218  0.35240  1.0000
  C   C2        1.0  0.58447  0.81787  0.64766  1.0000
  C   C3        1.0  0.91517  0.31789  0.64756  1.0000
  C   C4        1.0  0.41553  0.18212  0.35242  1.0000
  C   C5        1.0  0.97856  0.78387  0.19042  1.0000
  C   C6        1.0  0.47788  0.71607  0.80953  1.0000
  C   C7        1.0  0.02155  0.21610  0.80950  1.0000
  C   C8        1.0  0.52199  0.28389  0.19049  1.0000
  C   C9        1.0  0.01454  0.65063  0.21123  1.0000
  C   C10       1.0  0.51383  0.84938  0.78878  1.0000
  C   C11       1.0  0.98551  0.34940  0.78873  1.0000
  C   C12       1.0  0.48610  0.15063  0.21129  1.0000
  C   C13       1.0  0.79586  0.86491  0.30650  1.0000
  C   C14       1.0  0.29556  0.63506  0.69351  1.0000
  C   C15       1.0  0.20417  0.13513  0.69347  1.0000
  C   C16       1.0  0.70448  0.36496  0.30658  1.0000
  C   C17       1.0  0.90843  0.74526  0.04583  1.0000
  C   C18       1.0  0.40755  0.75476  0.95418  1.0000
  C   C19       1.0  0.09154  0.25475  0.95418  1.0000
  C   C20       1.0  0.59243  0.24521  0.04591  1.0000
  C   C21       1.0  0.87995  0.86690  0.00595  1.0000
  C   C22       1.0  0.37959  0.63312  0.99418  1.0000
  C   C23       1.0  0.12012  0.13306  0.99397  1.0000
  C   C24       1.0  0.62035  0.36685  0.00591  1.0000
  O   O1        1.0  0.21383  0.61986  0.35649  1.0000
  O   O2        1.0  0.71349  0.88018  0.64371  1.0000
  O   O3        1.0  0.78615  0.38023  0.64360  1.0000
  O   O4        1.0  0.28649  0.11992  0.35646  1.0000
  O   O5        1.0  0.00919  0.76760  0.45881  1.0000
  O   O6        1.0  0.50906  0.73248  0.54122  1.0000
  O   O7        1.0  0.99083  0.23248  0.54114  1.0000
  O   O8        1.0  0.49095  0.26752  0.45883  1.0000
  O   O9        1.0  0.70297  0.77121  0.29771  1.0000
  O   O10       1.0  0.20255  0.72870  0.70228  1.0000
  O   O11       1.0  0.29700  0.22888  0.70233  1.0000
  O   O12       1.0  0.79759  0.27135  0.29774  1.0000
  O   O13       1.0  0.86766  0.83137  0.87639  1.0000
  O   O14       1.0  0.36803  0.66861  0.12378  1.0000
  O   O15       1.0  0.13249  0.16852  0.12350  1.0000
  O   O16       1.0  0.63194  0.33136  0.87632  1.0000
  O   O17       1.0  0.80317  0.99637  0.36471  1.0000
  O   O18       1.0  0.30302  0.50360  0.63520  1.0000
  O   O19       1.0  0.19680  0.00368  0.63512  1.0000
  O   O20       1.0  0.69696  0.49642  0.36487  1.0000
  O   O21       1.0  0.08260  0.88753  0.23844  1.0000
  O   O22       1.0  0.58201  0.61243  0.76149  1.0000
  O   O23       1.0  0.91753  0.11241  0.76134  1.0000
  O   O24       1.0  0.41784  0.38752  0.23847  1.0000
  O   O25       1.0  0.86536  0.99374  0.09895  1.0000
  O   O26       1.0  0.36465  0.50631  0.90116  1.0000
  O   O27       1.0  0.13475  0.00624  0.90088  1.0000
  O   O28       1.0  0.63525  0.49367  0.09888  1.0000
  O   O29       1.0  0.11412  0.37368  0.39075  1.0000
  O   O30       1.0  0.61393  0.12634  0.60918  1.0000
  O   O31       1.0  0.88594  0.62629  0.60908  1.0000
  O   O32       1.0  0.38606  0.87366  0.39084  1.0000
