data_image0
_chemical_formula_structural       Gd4H24C24O32
_chemical_formula_sum              "Gd4 H24 C24 O32"
_cell_length_a       6.14719
_cell_length_b       10.0371
_cell_length_c       15.3577
_cell_angle_alpha    103.918
_cell_angle_beta     89.9825
_cell_angle_gamma    107.852

_space_group_name_H-M_alt    "P 1"
_space_group_IT_number       1

loop_
  _space_group_symop_operation_xyz
  'x, y, z'

loop_
  _atom_site_type_symbol
  _atom_site_label
  _atom_site_symmetry_multiplicity
  _atom_site_fract_x
  _atom_site_fract_y
  _atom_site_fract_z
  _atom_site_occupancy
  Gd  Gd1       1.0  0.53345  0.19222  0.70627  1.0000
  Gd  Gd2       1.0  0.34177  0.80779  0.79369  1.0000
  Gd  Gd3       1.0  0.46656  0.80778  0.29373  1.0000
  Gd  Gd4       1.0  0.65823  0.19221  0.20631  1.0000
  H   H1        1.0  0.07042  0.71402  0.50132  1.0000
  H   H2        1.0  0.35539  0.28578  0.99866  1.0000
  H   H3        1.0  0.92958  0.28599  0.49868  1.0000
  H   H4        1.0  0.64462  0.71422  0.00133  1.0000
  H   H5        1.0  0.87455  0.80676  0.54073  1.0000
  H   H6        1.0  0.06678  0.19294  0.95916  1.0000
  H   H7        1.0  0.12545  0.19324  0.45927  1.0000
  H   H8        1.0  0.93323  0.80706  0.04084  1.0000
  H   H9        1.0  0.59349  0.57263  0.55877  1.0000
  H   H10       1.0  0.02051  0.42753  0.94121  1.0000
  H   H11       1.0  0.40651  0.42737  0.44123  1.0000
  H   H12       1.0  0.97949  0.57247  0.05879  1.0000
  H   H13       1.0  0.80092  0.49543  0.50887  1.0000
  H   H14       1.0  0.30514  0.50442  0.99119  1.0000
  H   H15       1.0  0.19908  0.50457  0.49113  1.0000
  H   H16       1.0  0.69486  0.49558  0.00881  1.0000
  H   H17       1.0  0.76475  0.04821  0.54682  1.0000
  H   H18       1.0  0.71668  0.95194  0.95319  1.0000
  H   H19       1.0  0.23525  0.95180  0.45318  1.0000
  H   H20       1.0  0.28332  0.04806  0.04681  1.0000
  H   H21       1.0  0.93562  0.12418  0.63983  1.0000
  H   H22       1.0  0.81190  0.87616  0.86017  1.0000
  H   H23       1.0  0.06438  0.87582  0.36017  1.0000
  H   H24       1.0  0.18810  0.12384  0.13983  1.0000
  C   C1        1.0  0.22044  0.91040  0.60102  1.0000
  C   C2        1.0  0.30936  0.08948  0.89895  1.0000
  C   C3        1.0  0.77955  0.08960  0.39898  1.0000
  C   C4        1.0  0.69064  0.91052  0.10105  1.0000
  C   C5        1.0  0.01935  0.77653  0.56242  1.0000
  C   C6        1.0  0.24196  0.22327  0.93753  1.0000
  C   C7        1.0  0.98064  0.22347  0.43758  1.0000
  C   C8        1.0  0.75805  0.77673  0.06247  1.0000
  C   C9        1.0  0.83228  0.75845  0.70822  1.0000
  C   C10       1.0  0.07310  0.24159  0.79181  1.0000
  C   C11       1.0  0.16772  0.24155  0.29178  1.0000
  C   C12       1.0  0.92690  0.75841  0.20819  1.0000
  C   C13       1.0  0.93201  0.67536  0.62720  1.0000
  C   C14       1.0  0.25596  0.32457  0.87282  1.0000
  C   C15       1.0  0.06798  0.32463  0.37280  1.0000
  C   C16       1.0  0.74405  0.67543  0.12718  1.0000
  C   C17       1.0  0.67429  0.42756  0.62560  1.0000
  C   C18       1.0  0.24722  0.57260  0.87453  1.0000
  C   C19       1.0  0.32571  0.57245  0.37440  1.0000
  C   C20       1.0  0.75278  0.42740  0.12547  1.0000
  C   C21       1.0  0.74330  0.54244  0.57363  1.0000
  C   C22       1.0  0.20063  0.45758  0.92642  1.0000
  C   C23       1.0  0.25669  0.45756  0.42637  1.0000
  C   C24       1.0  0.79937  0.54242  0.07359  1.0000
  O   O1        1.0  0.11201  0.63808  0.65623  1.0000
  O   O2        1.0  0.47330  0.36181  0.84374  1.0000
  O   O3        1.0  0.88799  0.36192  0.34376  1.0000
  O   O4        1.0  0.52671  0.63819  0.15626  1.0000
  O   O5        1.0  0.34016  0.92165  0.67189  1.0000
  O   O6        1.0  0.41728  0.07811  0.82794  1.0000
  O   O7        1.0  0.65984  0.07835  0.32811  1.0000
  O   O8        1.0  0.58273  0.92190  0.17206  1.0000
  O   O9        1.0  0.26945  0.01406  0.56307  1.0000
  O   O10       1.0  0.25551  0.98603  0.93709  1.0000
  O   O11       1.0  0.73054  0.98594  0.43693  1.0000
  O   O12       1.0  0.74449  0.01397  0.06291  1.0000
  O   O13       1.0  0.96500  0.81762  0.78029  1.0000
  O   O14       1.0  0.14675  0.18245  0.71974  1.0000
  O   O15       1.0  0.03500  0.18238  0.21971  1.0000
  O   O16       1.0  0.85325  0.81755  0.28026  1.0000
  O   O17       1.0  0.63169  0.76271  0.69842  1.0000
  O   O18       1.0  0.86825  0.23734  0.80161  1.0000
  O   O19       1.0  0.36831  0.23728  0.30158  1.0000
  O   O20       1.0  0.13175  0.76266  0.19839  1.0000
  O   O21       1.0  0.80438  0.43492  0.69257  1.0000
  O   O22       1.0  0.36990  0.56517  0.80752  1.0000
  O   O23       1.0  0.19561  0.56508  0.30743  1.0000
  O   O24       1.0  0.63009  0.43484  0.19249  1.0000
  O   O25       1.0  0.77813  0.10211  0.61141  1.0000
  O   O26       1.0  0.67651  0.89845  0.88850  1.0000
  O   O27       1.0  0.22188  0.89789  0.38859  1.0000
  O   O28       1.0  0.32348  0.10155  0.11150  1.0000
  O   O29       1.0  0.48849  0.32289  0.60018  1.0000
  O   O30       1.0  0.16654  0.67743  0.90002  1.0000
  O   O31       1.0  0.51151  0.67711  0.39982  1.0000
  O   O32       1.0  0.83345  0.32256  0.09998  1.0000
