data_image0
_chemical_formula_structural       Cu4H32C44S4N16
_chemical_formula_sum              "Cu4 H32 C44 S4 N16"
_cell_length_a       9.20889
_cell_length_b       11.3054
_cell_length_c       11.3055
_cell_angle_alpha    91.1865
_cell_angle_beta     101.85
_cell_angle_gamma    101.85

_space_group_name_H-M_alt    "P 1"
_space_group_IT_number       1

loop_
  _space_group_symop_operation_xyz
  'x, y, z'

loop_
  _atom_site_type_symbol
  _atom_site_label
  _atom_site_symmetry_multiplicity
  _atom_site_fract_x
  _atom_site_fract_y
  _atom_site_fract_z
  _atom_site_occupancy
  Cu  Cu1       1.0  0.26745  0.75472  0.85122  1.0000
  Cu  Cu2       1.0  0.23253  0.14878  0.24529  1.0000
  Cu  Cu3       1.0  0.73253  0.24528  0.14878  1.0000
  Cu  Cu4       1.0  0.76745  0.85121  0.75470  1.0000
  H   H1        1.0  0.59284  0.07429  0.83233  1.0000
  H   H2        1.0  0.90717  0.16767  0.92571  1.0000
  H   H3        1.0  0.40717  0.92571  0.16767  1.0000
  H   H4        1.0  0.09285  0.83233  0.07430  1.0000
  H   H5        1.0  0.46396  0.18916  0.95595  1.0000
  H   H6        1.0  0.03604  0.04405  0.81084  1.0000
  H   H7        1.0  0.53605  0.81084  0.04405  1.0000
  H   H8        1.0  0.96396  0.95595  0.18916  1.0000
  H   H9        1.0  0.29654  0.26329  0.01216  1.0000
  H   H10       1.0  0.20347  0.98784  0.73671  1.0000
  H   H11       1.0  0.70347  0.73670  0.98784  1.0000
  H   H12       1.0  0.79654  0.01216  0.26329  1.0000
  H   H13       1.0  0.17328  0.39818  0.11554  1.0000
  H   H14       1.0  0.32672  0.88446  0.60182  1.0000
  H   H15       1.0  0.82673  0.60182  0.88446  1.0000
  H   H16       1.0  0.67328  0.11555  0.39817  1.0000
  H   H17       1.0  0.16567  0.60389  0.04361  1.0000
  H   H18       1.0  0.33432  0.95639  0.39611  1.0000
  H   H19       1.0  0.83433  0.39611  0.95639  1.0000
  H   H20       1.0  0.66567  0.04362  0.60388  1.0000
  H   H21       1.0  0.40417  0.55133  0.77847  1.0000
  H   H22       1.0  0.09582  0.22152  0.44868  1.0000
  H   H23       1.0  0.59583  0.44868  0.22153  1.0000
  H   H24       1.0  0.90418  0.77847  0.55133  1.0000
  H   H25       1.0  0.42361  0.44027  0.37263  1.0000
  H   H26       1.0  0.07639  0.62737  0.55973  1.0000
  H   H27       1.0  0.57639  0.55973  0.62737  1.0000
  H   H28       1.0  0.92361  0.37263  0.44028  1.0000
  H   H29       1.0  0.34546  0.41717  0.50445  1.0000
  H   H30       1.0  0.15454  0.49555  0.58283  1.0000
  H   H31       1.0  0.65454  0.58283  0.49555  1.0000
  H   H32       1.0  0.84546  0.50445  0.41717  1.0000
  C   C1        1.0  0.52388  0.28469  0.64990  1.0000
  C   C2        1.0  0.97612  0.35011  0.71532  1.0000
  C   C3        1.0  0.47613  0.71532  0.35010  1.0000
  C   C4        1.0  0.02388  0.64990  0.28469  1.0000
  C   C5        1.0  0.55259  0.15446  0.79909  1.0000
  C   C6        1.0  0.94742  0.20092  0.84555  1.0000
  C   C7        1.0  0.44743  0.84555  0.20091  1.0000
  C   C8        1.0  0.05259  0.79909  0.15446  1.0000
  C   C9        1.0  0.47948  0.21736  0.86721  1.0000
  C   C10       1.0  0.02052  0.13279  0.78264  1.0000
  C   C11       1.0  0.52053  0.78265  0.13279  1.0000
  C   C12       1.0  0.97948  0.86721  0.21736  1.0000
  C   C13       1.0  0.43319  0.32003  0.81840  1.0000
  C   C14       1.0  0.06681  0.18160  0.67997  1.0000
  C   C15       1.0  0.56682  0.67997  0.18160  1.0000
  C   C16       1.0  0.93319  0.81840  0.32003  1.0000
  C   C17       1.0  0.35891  0.39580  0.88439  1.0000
  C   C18       1.0  0.14109  0.11561  0.60420  1.0000
  C   C19       1.0  0.64109  0.60419  0.11561  1.0000
  C   C20       1.0  0.85891  0.88439  0.39580  1.0000
  C   C21       1.0  0.29486  0.35401  0.98213  1.0000
  C   C22       1.0  0.20514  0.01787  0.64600  1.0000
  C   C23       1.0  0.70514  0.64599  0.01787  1.0000
  C   C24       1.0  0.79486  0.98213  0.35400  1.0000
  C   C25       1.0  0.22593  0.42921  0.04063  1.0000
  C   C26       1.0  0.27407  0.95937  0.57079  1.0000
  C   C27       1.0  0.77407  0.57078  0.95937  1.0000
  C   C28       1.0  0.72593  0.04063  0.42921  1.0000
  C   C29       1.0  0.22084  0.54380  0.00008  1.0000
  C   C30       1.0  0.27915  0.99991  0.45620  1.0000
  C   C31       1.0  0.77916  0.45619  0.99992  1.0000
  C   C32       1.0  0.72084  0.00009  0.54379  1.0000
  C   C33       1.0  0.35203  0.51381  0.85163  1.0000
  C   C34       1.0  0.14797  0.14837  0.48620  1.0000
  C   C35       1.0  0.64797  0.48619  0.14837  1.0000
  C   C36       1.0  0.85203  0.85163  0.51380  1.0000
  C   C37       1.0  0.45148  0.43922  0.47175  1.0000
  C   C38       1.0  0.04853  0.52825  0.56078  1.0000
  C   C39       1.0  0.54852  0.56078  0.52825  1.0000
  C   C40       1.0  0.95148  0.47175  0.43923  1.0000
  C   C41       1.0  0.58259  0.83550  0.79664  1.0000
  C   C42       1.0  0.91738  0.20335  0.16449  1.0000
  C   C43       1.0  0.41738  0.16449  0.20335  1.0000
  C   C44       1.0  0.08261  0.79664  0.83551  1.0000
  S   S1        1.0  0.54854  0.31583  0.50317  1.0000
  S   S2        1.0  0.95145  0.49683  0.68417  1.0000
  S   S3        1.0  0.45146  0.68418  0.49683  1.0000
  S   S4        1.0  0.04855  0.50317  0.31583  1.0000
  N   N1        1.0  0.45639  0.35395  0.70888  1.0000
  N   N2        1.0  0.04361  0.29112  0.64605  1.0000
  N   N3        1.0  0.54362  0.64605  0.29112  1.0000
  N   N4        1.0  0.95640  0.70888  0.35395  1.0000
  N   N5        1.0  0.57555  0.18646  0.69020  1.0000
  N   N6        1.0  0.92446  0.30981  0.81354  1.0000
  N   N7        1.0  0.42446  0.81354  0.30980  1.0000
  N   N8        1.0  0.07556  0.69019  0.18647  1.0000
  N   N9        1.0  0.28430  0.58607  0.90737  1.0000
  N   N10       1.0  0.21569  0.09263  0.41394  1.0000
  N   N11       1.0  0.71570  0.41393  0.09264  1.0000
  N   N12       1.0  0.78430  0.90737  0.58606  1.0000
  N   N13       1.0  0.46072  0.81579  0.81939  1.0000
  N   N14       1.0  0.03925  0.18060  0.18420  1.0000
  N   N15       1.0  0.53925  0.18420  0.18061  1.0000
  N   N16       1.0  0.96073  0.81939  0.81580  1.0000
