data_image0
_chemical_formula_structural       NiH18C20N2O6F4
_chemical_formula_sum              "Ni1 H18 C20 N2 O6 F4"
_cell_length_a       7.7336
_cell_length_b       8.907
_cell_length_c       8.99425
_cell_angle_alpha    100.039
_cell_angle_beta     101.935
_cell_angle_gamma    115.79

_space_group_name_H-M_alt    "P 1"
_space_group_IT_number       1

loop_
  _space_group_symop_operation_xyz
  'x, y, z'

loop_
  _atom_site_type_symbol
  _atom_site_label
  _atom_site_symmetry_multiplicity
  _atom_site_fract_x
  _atom_site_fract_y
  _atom_site_fract_z
  _atom_site_occupancy
  Ni  Ni1       1.0  0.00000  0.00000  0.00000  1.0000
  H   H1        1.0  0.31902  0.16467  0.23571  1.0000
  H   H2        1.0  0.68098  0.83534  0.76430  1.0000
  H   H3        1.0  0.23166  0.05128  0.77832  1.0000
  H   H4        1.0  0.76834  0.94872  0.22168  1.0000
  H   H5        1.0  0.41538  0.28460  0.66159  1.0000
  H   H6        1.0  0.58461  0.71538  0.33840  1.0000
  H   H7        1.0  0.42363  0.57197  0.74156  1.0000
  H   H8        1.0  0.57636  0.42802  0.25843  1.0000
  H   H9        1.0  0.22810  0.60634  0.92445  1.0000
  H   H10       1.0  0.77190  0.39365  0.07554  1.0000
  H   H11       1.0  0.03895  0.35475  0.02055  1.0000
  H   H12       1.0  0.96105  0.64525  0.97945  1.0000
  H   H13       1.0  0.31189  0.90976  0.26376  1.0000
  H   H14       1.0  0.68810  0.09024  0.73624  1.0000
  H   H15       1.0  0.54952  0.03905  0.23588  1.0000
  H   H16       1.0  0.45046  0.96094  0.76413  1.0000
  H   H17       1.0  0.34300  0.86873  0.07148  1.0000
  H   H18       1.0  0.65699  0.13127  0.92852  1.0000
  C   C1        1.0  0.11323  0.27493  0.30935  1.0000
  C   C2        1.0  0.88681  0.72508  0.69067  1.0000
  C   C3        1.0  0.05518  0.39045  0.40919  1.0000
  C   C4        1.0  0.94483  0.60956  0.59081  1.0000
  C   C5        1.0  0.92070  0.32632  0.49323  1.0000
  C   C6        1.0  0.07930  0.67369  0.50677  1.0000
  C   C7        1.0  0.13286  0.56630  0.41821  1.0000
  C   C8        1.0  0.86714  0.43370  0.58179  1.0000
  C   C9        1.0  0.23301  0.17549  0.80571  1.0000
  C   C10       1.0  0.76698  0.82450  0.19428  1.0000
  C   C11       1.0  0.33774  0.30707  0.74358  1.0000
  C   C12       1.0  0.66225  0.69292  0.25641  1.0000
  C   C13       1.0  0.33978  0.46599  0.78657  1.0000
  C   C14       1.0  0.66021  0.53400  0.21342  1.0000
  C   C15       1.0  0.23155  0.48480  0.88779  1.0000
  C   C16       1.0  0.76845  0.51520  0.11220  1.0000
  C   C17       1.0  0.12574  0.34562  0.94191  1.0000
  C   C18       1.0  0.87426  0.65438  0.05809  1.0000
  C   C19       1.0  0.38387  0.97048  0.18093  1.0000
  C   C20       1.0  0.61612  0.02952  0.81908  1.0000
  N   N1        1.0  0.12715  0.19287  0.90314  1.0000
  N   N2        1.0  0.87285  0.80713  0.09686  1.0000
  O   O1        1.0  0.97859  0.17793  0.17453  1.0000
  O   O2        1.0  0.02141  0.82207  0.82548  1.0000
  O   O3        1.0  0.28254  0.28633  0.36575  1.0000
  O   O4        1.0  0.71747  0.71369  0.63425  1.0000
  O   O5        1.0  0.31883  0.08907  0.13755  1.0000
  O   O6        1.0  0.68117  0.91093  0.86246  1.0000
  F   F1        1.0  0.25890  0.63413  0.33371  1.0000
  F   F2        1.0  0.74111  0.36588  0.66629  1.0000
  F   F3        1.0  0.84464  0.15718  0.49398  1.0000
  F   F4        1.0  0.15536  0.84282  0.50601  1.0000
