data_image0
_chemical_formula_structural       Dy4H36C18O36
_chemical_formula_sum              "Dy4 H36 C18 O36"
_cell_length_a       10.4511
_cell_length_b       10.4503
_cell_length_c       10.7082
_cell_angle_alpha    101.282
_cell_angle_beta     117.943
_cell_angle_gamma    108.63

_space_group_name_H-M_alt    "P 1"
_space_group_IT_number       1

loop_
  _space_group_symop_operation_xyz
  'x, y, z'

loop_
  _atom_site_type_symbol
  _atom_site_label
  _atom_site_symmetry_multiplicity
  _atom_site_fract_x
  _atom_site_fract_y
  _atom_site_fract_z
  _atom_site_occupancy
  Dy  Dy1       1.0  0.95043  0.13509  0.37957  1.0000
  Dy  Dy2       1.0  0.25552  0.57086  0.12042  1.0000
  Dy  Dy3       1.0  0.04957  0.86491  0.62043  1.0000
  Dy  Dy4       1.0  0.74448  0.42914  0.87958  1.0000
  H   H1        1.0  0.29444  0.21648  0.16646  1.0000
  H   H2        1.0  0.55005  0.12802  0.33348  1.0000
  H   H3        1.0  0.70557  0.78352  0.83354  1.0000
  H   H4        1.0  0.44995  0.87198  0.66652  1.0000
  H   H5        1.0  0.36957  0.23703  0.35968  1.0000
  H   H6        1.0  0.37736  0.00988  0.14027  1.0000
  H   H7        1.0  0.63043  0.76298  0.64032  1.0000
  H   H8        1.0  0.62264  0.99012  0.85973  1.0000
  H   H9        1.0  0.89244  0.03497  0.78711  1.0000
  H   H10       1.0  0.74783  0.10529  0.71284  1.0000
  H   H11       1.0  0.10755  0.96503  0.21288  1.0000
  H   H12       1.0  0.25217  0.89471  0.28716  1.0000
  H   H13       1.0  0.83050  0.85710  0.10669  1.0000
  H   H14       1.0  0.25047  0.72386  0.39335  1.0000
  H   H15       1.0  0.16949  0.14290  0.89331  1.0000
  H   H16       1.0  0.74953  0.27614  0.60665  1.0000
  H   H17       1.0  0.69278  0.90301  0.05065  1.0000
  H   H18       1.0  0.35240  0.64217  0.44939  1.0000
  H   H19       1.0  0.30722  0.09699  0.94935  1.0000
  H   H20       1.0  0.64760  0.35783  0.55061  1.0000
  H   H21       1.0  0.18240  0.45802  0.52186  1.0000
  H   H22       1.0  0.43619  0.66060  0.97821  1.0000
  H   H23       1.0  0.81760  0.54198  0.47814  1.0000
  H   H24       1.0  0.56380  0.33939  0.02179  1.0000
  H   H25       1.0  0.05477  0.44639  0.56594  1.0000
  H   H26       1.0  0.38044  0.48887  0.93404  1.0000
  H   H27       1.0  0.94522  0.55361  0.43406  1.0000
  H   H28       1.0  0.61955  0.51112  0.06596  1.0000
  H   H29       1.0  0.32583  0.33613  0.64130  1.0000
  H   H30       1.0  0.19485  0.68457  0.85876  1.0000
  H   H31       1.0  0.67417  0.66387  0.35870  1.0000
  H   H32       1.0  0.80515  0.31543  0.14123  1.0000
  H   H33       1.0  0.26319  0.18710  0.65790  1.0000
  H   H34       1.0  0.02919  0.60529  0.84211  1.0000
  H   H35       1.0  0.73681  0.81290  0.34209  1.0000
  H   H36       1.0  0.97081  0.39471  0.15789  1.0000
  C   C1        1.0  0.18687  0.30554  0.25889  1.0000
  C   C2        1.0  0.54667  0.92798  0.24109  1.0000
  C   C3        1.0  0.81313  0.69446  0.74111  1.0000
  C   C4        1.0  0.45333  0.07202  0.75891  1.0000
  C   C5        1.0  0.33538  0.29155  0.28094  1.0000
  C   C6        1.0  0.51059  0.05443  0.21900  1.0000
  C   C7        1.0  0.66462  0.70845  0.71906  1.0000
  C   C8        1.0  0.48941  0.94557  0.78101  1.0000
  C   C9        1.0  0.48647  0.43124  0.33474  1.0000
  C   C10       1.0  0.59649  0.15171  0.16520  1.0000
  C   C11       1.0  0.51353  0.56876  0.66526  1.0000
  C   C12       1.0  0.40351  0.84830  0.83481  1.0000
  C   C13       1.0  0.89647  0.12250  0.62212  1.0000
  C   C14       1.0  0.00033  0.27434  0.87783  1.0000
  C   C15       1.0  0.10352  0.87750  0.37788  1.0000
  C   C16       1.0  0.99967  0.72566  0.12217  1.0000
  C   C17       1.0  0.87098  0.12098  0.74998  1.0000
  C   C18       1.0  0.12902  0.87902  0.25002  1.0000
  O   O1        1.0  0.10109  0.21702  0.28785  1.0000
  O   O2        1.0  0.42918  0.81322  0.21216  1.0000
  O   O3        1.0  0.89892  0.78298  0.71216  1.0000
  O   O4        1.0  0.57082  0.18677  0.78784  1.0000
  O   O5        1.0  0.15169  0.39873  0.20921  1.0000
  O   O6        1.0  0.68951  0.94246  0.29076  1.0000
  O   O7        1.0  0.84831  0.60127  0.79079  1.0000
  O   O8        1.0  0.31049  0.05754  0.70924  1.0000
  O   O9        1.0  0.62541  0.44316  0.43009  1.0000
  O   O10       1.0  0.51303  0.19525  0.06980  1.0000
  O   O11       1.0  0.37459  0.55685  0.56991  1.0000
  O   O12       1.0  0.48696  0.80474  0.93020  1.0000
  O   O13       1.0  0.47154  0.52897  0.28219  1.0000
  O   O14       1.0  0.74675  0.18932  0.21773  1.0000
  O   O15       1.0  0.52846  0.47103  0.71781  1.0000
  O   O16       1.0  0.25325  0.81068  0.78227  1.0000
  O   O17       1.0  0.86374  0.20709  0.55542  1.0000
  O   O18       1.0  0.15163  0.30833  0.94451  1.0000
  O   O19       1.0  0.13626  0.79291  0.44458  1.0000
  O   O20       1.0  0.84837  0.69167  0.05549  1.0000
  O   O21       1.0  0.95924  0.04707  0.58898  1.0000
  O   O22       1.0  0.95805  0.37025  0.91099  1.0000
  O   O23       1.0  0.04075  0.95293  0.41102  1.0000
  O   O24       1.0  0.04195  0.62976  0.08901  1.0000
  O   O25       1.0  0.81531  0.94667  0.11629  1.0000
  O   O26       1.0  0.33040  0.69902  0.38372  1.0000
  O   O27       1.0  0.18468  0.05333  0.88370  1.0000
  O   O28       1.0  0.66960  0.30098  0.61628  1.0000
  O   O29       1.0  0.06420  0.40291  0.48318  1.0000
  O   O30       1.0  0.41973  0.58104  0.01683  1.0000
  O   O31       1.0  0.93580  0.59709  0.51682  1.0000
  O   O32       1.0  0.58026  0.41896  0.98317  1.0000
  O   O33       1.0  0.22457  0.25447  0.61599  1.0000
  O   O34       1.0  0.13847  0.60858  0.88404  1.0000
  O   O35       1.0  0.77543  0.74553  0.38401  1.0000
  O   O36       1.0  0.86153  0.39142  0.11596  1.0000
