data_image0
_chemical_formula_structural       Gd2H10C12O16
_chemical_formula_sum              "Gd2 H10 C12 O16"
_cell_length_a       5.85582
_cell_length_b       9.46643
_cell_length_c       10.2521
_cell_angle_alpha    88.0943
_cell_angle_beta     73.6799
_cell_angle_gamma    77.8859

_space_group_name_H-M_alt    "P 1"
_space_group_IT_number       1

loop_
  _space_group_symop_operation_xyz
  'x, y, z'

loop_
  _atom_site_type_symbol
  _atom_site_label
  _atom_site_symmetry_multiplicity
  _atom_site_fract_x
  _atom_site_fract_y
  _atom_site_fract_z
  _atom_site_occupancy
  Gd  Gd1       1.0  0.65092  0.05696  0.29698  1.0000
  Gd  Gd2       1.0  0.34909  0.94304  0.70301  1.0000
  H   H1        1.0  0.28984  0.88588  0.24456  1.0000
  H   H2        1.0  0.71014  0.11412  0.75545  1.0000
  H   H3        1.0  0.26909  0.89033  0.40007  1.0000
  H   H4        1.0  0.73090  0.10968  0.59993  1.0000
  H   H5        1.0  0.32798  0.31245  0.21361  1.0000
  H   H6        1.0  0.67203  0.68755  0.78639  1.0000
  H   H7        1.0  0.24324  0.17593  0.16582  1.0000
  H   H8        1.0  0.75675  0.82407  0.83418  1.0000
  H   H9        1.0  0.72672  0.55623  0.35067  1.0000
  H   H10       1.0  0.27328  0.44378  0.64933  1.0000
  C   C1        1.0  0.84710  0.53287  0.41627  1.0000
  C   C2        1.0  0.15289  0.46713  0.58373  1.0000
  C   C3        1.0  0.93368  0.64337  0.46101  1.0000
  C   C4        1.0  0.06631  0.35664  0.53899  1.0000
  C   C5        1.0  0.84825  0.79243  0.41535  1.0000
  C   C6        1.0  0.15173  0.20757  0.58466  1.0000
  C   C7        1.0  0.08892  0.61007  0.54563  1.0000
  C   C8        1.0  0.91108  0.38993  0.45437  1.0000
  C   C9        1.0  0.18910  0.72298  0.59653  1.0000
  C   C10       1.0  0.81090  0.27702  0.40347  1.0000
  C   C11       1.0  0.91050  0.95787  0.98426  1.0000
  C   C12       1.0  0.08955  0.04211  0.01571  1.0000
  O   O1        1.0  0.97073  0.90373  0.86368  1.0000
  O   O2        1.0  0.02928  0.09627  0.13630  1.0000
  O   O3        1.0  0.94790  0.82933  0.29646  1.0000
  O   O4        1.0  0.05210  0.17067  0.70353  1.0000
  O   O5        1.0  0.66007  0.87530  0.49185  1.0000
  O   O6        1.0  0.33992  0.12470  0.50815  1.0000
  O   O7        1.0  0.13301  0.85476  0.56063  1.0000
  O   O8        1.0  0.86698  0.14524  0.43937  1.0000
  O   O9        1.0  0.32452  0.68961  0.67484  1.0000
  O   O10       1.0  0.67547  0.31039  0.32516  1.0000
  O   O11       1.0  0.72249  0.94900  0.07715  1.0000
  O   O12       1.0  0.27756  0.05097  0.92284  1.0000
  O   O13       1.0  0.37854  0.90192  0.30829  1.0000
  O   O14       1.0  0.62145  0.09808  0.69172  1.0000
  O   O15       1.0  0.37540  0.20923  0.19341  1.0000
  O   O16       1.0  0.62459  0.79077  0.80660  1.0000
