data_image0
_chemical_formula_structural       Co2H28C26N4Cl4
_chemical_formula_sum              "Co2 H28 C26 N4 Cl4"
_cell_length_a       5.34406
_cell_length_b       9.62548
_cell_length_c       13.1024
_cell_angle_alpha    89.9987
_cell_angle_beta     89.9997
_cell_angle_gamma    90.8785

_space_group_name_H-M_alt    "P 1"
_space_group_IT_number       1

loop_
  _space_group_symop_operation_xyz
  'x, y, z'

loop_
  _atom_site_type_symbol
  _atom_site_label
  _atom_site_symmetry_multiplicity
  _atom_site_fract_x
  _atom_site_fract_y
  _atom_site_fract_z
  _atom_site_occupancy
  Co  Co1       1.0  0.08080  0.28475  0.75000  1.0000
  Co  Co2       1.0  0.91919  0.71524  0.25000  1.0000
  H   H1        1.0  0.53462  0.42022  0.84390  1.0000
  H   H2        1.0  0.46536  0.57977  0.34390  1.0000
  H   H3        1.0  0.46538  0.57979  0.15610  1.0000
  H   H4        1.0  0.53463  0.42021  0.65611  1.0000
  H   H5        1.0  0.78699  0.38997  0.00026  1.0000
  H   H6        1.0  0.21302  0.61002  0.50027  1.0000
  H   H7        1.0  0.21304  0.61003  0.99974  1.0000
  H   H8        1.0  0.78698  0.38998  0.49974  1.0000
  H   H9        1.0  0.27712  0.05976  0.08931  1.0000
  H   H10       1.0  0.72289  0.94024  0.58929  1.0000
  H   H11       1.0  0.72292  0.94024  0.91069  1.0000
  H   H12       1.0  0.27709  0.05977  0.41070  1.0000
  H   H13       1.0  0.03995  0.10422  0.92759  1.0000
  H   H14       1.0  0.96004  0.89578  0.42758  1.0000
  H   H15       1.0  0.96008  0.89578  0.07241  1.0000
  H   H16       1.0  0.03992  0.10423  0.57241  1.0000
  H   H17       1.0  0.88228  0.25096  0.15059  1.0000
  H   H18       1.0  0.11773  0.74903  0.65059  1.0000
  H   H19       1.0  0.11774  0.74903  0.84941  1.0000
  H   H20       1.0  0.88226  0.25097  0.34941  1.0000
  H   H21       1.0  0.74177  0.08283  0.15899  1.0000
  H   H22       1.0  0.25823  0.91717  0.65898  1.0000
  H   H23       1.0  0.25824  0.91717  0.84102  1.0000
  H   H24       1.0  0.74175  0.08284  0.34102  1.0000
  H   H25       1.0  0.37248  0.18765  0.24999  1.0000
  H   H26       1.0  0.62752  0.81235  0.74999  1.0000
  H   H27       1.0  0.53165  0.35011  0.24999  1.0000
  H   H28       1.0  0.46835  0.64989  0.75000  1.0000
  C   C1        1.0  0.48074  0.34164  0.89990  1.0000
  C   C2        1.0  0.51925  0.65836  0.39990  1.0000
  C   C3        1.0  0.51926  0.65837  0.10011  1.0000
  C   C4        1.0  0.48074  0.34164  0.60011  1.0000
  C   C5        1.0  0.62209  0.32400  0.98787  1.0000
  C   C6        1.0  0.37792  0.67600  0.48788  1.0000
  C   C7        1.0  0.37794  0.67600  0.01213  1.0000
  C   C8        1.0  0.62207  0.32401  0.51213  1.0000
  C   C9        1.0  0.55511  0.22066  0.05829  1.0000
  C   C10       1.0  0.44489  0.77934  0.55829  1.0000
  C   C11       1.0  0.44493  0.77933  0.94171  1.0000
  C   C12       1.0  0.55508  0.22067  0.44171  1.0000
  C   C13       1.0  0.33947  0.14096  0.03654  1.0000
  C   C14       1.0  0.66053  0.85904  0.53654  1.0000
  C   C15       1.0  0.66056  0.85903  0.96346  1.0000
  C   C16       1.0  0.33945  0.14097  0.46346  1.0000
  C   C17       1.0  0.20737  0.16423  0.94744  1.0000
  C   C18       1.0  0.79262  0.83577  0.44744  1.0000
  C   C19       1.0  0.79265  0.83577  0.05256  1.0000
  C   C20       1.0  0.20735  0.16423  0.55256  1.0000
  C   C21       1.0  0.70207  0.19466  0.15358  1.0000
  C   C22       1.0  0.29793  0.80534  0.65357  1.0000
  C   C23       1.0  0.29795  0.80533  0.84643  1.0000
  C   C24       1.0  0.70205  0.19467  0.34642  1.0000
  C   C25       1.0  0.55948  0.23718  0.25000  1.0000
  C   C26       1.0  0.44052  0.76282  0.75000  1.0000
  N   N1        1.0  0.27703  0.26235  0.87871  1.0000
  N   N2        1.0  0.72297  0.73764  0.37871  1.0000
  N   N3        1.0  0.72299  0.73765  0.12129  1.0000
  N   N4        1.0  0.27702  0.26235  0.62129  1.0000
  Cl  Cl1       1.0  0.80197  0.10916  0.75000  1.0000
  Cl  Cl2       1.0  0.19802  0.89084  0.25000  1.0000
  Cl  Cl3       1.0  0.95230  0.50225  0.75000  1.0000
  Cl  Cl4       1.0  0.04769  0.49774  0.25000  1.0000
