data_image0
_chemical_formula_structural       Cd2H32C40N16O4
_chemical_formula_sum              "Cd2 H32 C40 N16 O4"
_cell_length_a       9.27566
_cell_length_b       9.2757
_cell_length_c       11.8299
_cell_angle_alpha    78.6386
_cell_angle_beta     78.6382
_cell_angle_gamma    84.091

_space_group_name_H-M_alt    "P 1"
_space_group_IT_number       1

loop_
  _space_group_symop_operation_xyz
  'x, y, z'

loop_
  _atom_site_type_symbol
  _atom_site_label
  _atom_site_symmetry_multiplicity
  _atom_site_fract_x
  _atom_site_fract_y
  _atom_site_fract_z
  _atom_site_occupancy
  Cd  Cd1       1.0  0.30459  0.69541  0.25000  1.0000
  Cd  Cd2       1.0  0.69541  0.30459  0.75000  1.0000
  H   H1        1.0  0.24888  0.13682  0.87012  1.0000
  H   H2        1.0  0.86318  0.75112  0.62988  1.0000
  H   H3        1.0  0.75113  0.86318  0.12988  1.0000
  H   H4        1.0  0.13682  0.24887  0.37012  1.0000
  H   H5        1.0  0.02672  0.26677  0.97016  1.0000
  H   H6        1.0  0.73323  0.97328  0.52984  1.0000
  H   H7        1.0  0.97328  0.73323  0.02984  1.0000
  H   H8        1.0  0.26677  0.02672  0.47016  1.0000
  H   H9        1.0  0.83271  0.27799  0.14866  1.0000
  H   H10       1.0  0.72201  0.16729  0.35134  1.0000
  H   H11       1.0  0.16729  0.72201  0.85134  1.0000
  H   H12       1.0  0.27798  0.83271  0.64866  1.0000
  H   H13       1.0  0.49563  0.04098  0.85749  1.0000
  H   H14       1.0  0.95901  0.50438  0.64251  1.0000
  H   H15       1.0  0.50437  0.95902  0.14251  1.0000
  H   H16       1.0  0.04099  0.49563  0.35749  1.0000
  H   H17       1.0  0.37386  0.95364  0.79753  1.0000
  H   H18       1.0  0.04636  0.62614  0.70247  1.0000
  H   H19       1.0  0.62615  0.04636  0.20248  1.0000
  H   H20       1.0  0.95364  0.37386  0.29753  1.0000
  H   H21       1.0  0.65382  0.80276  0.88408  1.0000
  H   H22       1.0  0.19724  0.34618  0.61591  1.0000
  H   H23       1.0  0.34618  0.19725  0.11591  1.0000
  H   H24       1.0  0.80275  0.65382  0.38409  1.0000
  H   H25       1.0  0.62910  0.85889  0.73577  1.0000
  H   H26       1.0  0.14111  0.37090  0.76422  1.0000
  H   H27       1.0  0.37090  0.14112  0.26423  1.0000
  H   H28       1.0  0.85888  0.62909  0.23578  1.0000
  H   H29       1.0  0.52789  0.71440  0.82881  1.0000
  H   H30       1.0  0.28560  0.47211  0.67118  1.0000
  H   H31       1.0  0.47211  0.28561  0.17119  1.0000
  H   H32       1.0  0.71440  0.52789  0.32882  1.0000
  C   C1        1.0  0.25939  0.96312  0.02291  1.0000
  C   C2        1.0  0.03689  0.74062  0.47708  1.0000
  C   C3        1.0  0.74061  0.03688  0.97709  1.0000
  C   C4        1.0  0.96312  0.25938  0.52291  1.0000
  C   C5        1.0  0.19914  0.09456  0.96019  1.0000
  C   C6        1.0  0.90544  0.80086  0.53981  1.0000
  C   C7        1.0  0.80087  0.90544  0.03981  1.0000
  C   C8        1.0  0.09456  0.19913  0.46019  1.0000
  C   C9        1.0  0.07715  0.16664  0.01634  1.0000
  C   C10       1.0  0.83336  0.92285  0.48365  1.0000
  C   C11       1.0  0.92285  0.83337  0.98366  1.0000
  C   C12       1.0  0.16664  0.07714  0.51635  1.0000
  C   C13       1.0  0.01355  0.11013  0.13376  1.0000
  C   C14       1.0  0.88987  0.98646  0.36624  1.0000
  C   C15       1.0  0.98646  0.88987  0.86624  1.0000
  C   C16       1.0  0.11013  0.01354  0.63376  1.0000
  C   C17       1.0  0.08281  0.97918  0.19013  1.0000
  C   C18       1.0  0.02082  0.91719  0.30987  1.0000
  C   C19       1.0  0.91719  0.02082  0.80988  1.0000
  C   C20       1.0  0.97918  0.08281  0.69012  1.0000
  C   C21       1.0  0.88347  0.17749  0.19398  1.0000
  C   C22       1.0  0.82251  0.11653  0.30602  1.0000
  C   C23       1.0  0.11653  0.82251  0.80602  1.0000
  C   C24       1.0  0.17749  0.88347  0.69398  1.0000
  C   C25       1.0  0.45227  0.93519  0.85823  1.0000
  C   C26       1.0  0.06480  0.54774  0.64177  1.0000
  C   C27       1.0  0.54773  0.06481  0.14177  1.0000
  C   C28       1.0  0.93520  0.45227  0.35823  1.0000
  C   C29       1.0  0.57275  0.82034  0.82577  1.0000
  C   C30       1.0  0.17965  0.42725  0.67422  1.0000
  C   C31       1.0  0.42725  0.17966  0.17423  1.0000
  C   C32       1.0  0.82034  0.57275  0.32578  1.0000
  C   C33       1.0  0.22219  0.52828  0.05365  1.0000
  C   C34       1.0  0.47173  0.77782  0.44635  1.0000
  C   C35       1.0  0.77782  0.47173  0.94635  1.0000
  C   C36       1.0  0.52827  0.22218  0.55364  1.0000
  C   C37       1.0  0.36915  0.41736  0.90885  1.0000
  C   C38       1.0  0.58263  0.63085  0.59114  1.0000
  C   C39       1.0  0.63085  0.58263  0.09115  1.0000
  C   C40       1.0  0.41736  0.36915  0.40885  1.0000
  N   N1        1.0  0.20454  0.91021  0.13457  1.0000
  N   N2        1.0  0.08979  0.79547  0.36543  1.0000
  N   N3        1.0  0.79547  0.08979  0.86543  1.0000
  N   N4        1.0  0.91021  0.20453  0.63457  1.0000
  N   N5        1.0  0.17967  0.56841  0.14407  1.0000
  N   N6        1.0  0.43159  0.82034  0.35593  1.0000
  N   N7        1.0  0.82034  0.43159  0.85593  1.0000
  N   N8        1.0  0.56841  0.17966  0.64407  1.0000
  N   N9        1.0  0.25281  0.49302  0.95074  1.0000
  N   N10       1.0  0.50698  0.74719  0.54926  1.0000
  N   N11       1.0  0.74720  0.50698  0.04926  1.0000
  N   N12       1.0  0.49302  0.25281  0.45074  1.0000
  N   N13       1.0  0.46813  0.34831  0.86135  1.0000
  N   N14       1.0  0.65167  0.53186  0.63865  1.0000
  N   N15       1.0  0.53187  0.65168  0.13865  1.0000
  N   N16       1.0  0.34832  0.46814  0.36135  1.0000
  O   O1        1.0  0.37478  0.88074  0.97622  1.0000
  O   O2        1.0  0.11926  0.62523  0.52378  1.0000
  O   O3        1.0  0.62523  0.11927  0.02378  1.0000
  O   O4        1.0  0.88073  0.37477  0.47622  1.0000
