data_image0
_chemical_formula_structural       Ni2H20C24N4O8
_chemical_formula_sum              "Ni2 H20 C24 N4 O8"
_cell_length_a       8.65217
_cell_length_b       8.90391
_cell_length_c       8.90394
_cell_angle_alpha    73.9905
_cell_angle_beta     89.014
_cell_angle_gamma    89.014

_space_group_name_H-M_alt    "P 1"
_space_group_IT_number       1

loop_
  _space_group_symop_operation_xyz
  'x, y, z'

loop_
  _atom_site_type_symbol
  _atom_site_label
  _atom_site_symmetry_multiplicity
  _atom_site_fract_x
  _atom_site_fract_y
  _atom_site_fract_z
  _atom_site_occupancy
  Ni  Ni1       1.0  0.25000  0.85063  0.14936  1.0000
  Ni  Ni2       1.0  0.75000  0.14936  0.85064  1.0000
  H   H1        1.0  0.99104  0.67648  0.33582  1.0000
  H   H2        1.0  0.50896  0.66418  0.32352  1.0000
  H   H3        1.0  0.00896  0.32353  0.66418  1.0000
  H   H4        1.0  0.49104  0.33582  0.67648  1.0000
  H   H5        1.0  0.86630  0.41544  0.37757  1.0000
  H   H6        1.0  0.63370  0.62243  0.58456  1.0000
  H   H7        1.0  0.13370  0.58456  0.62243  1.0000
  H   H8        1.0  0.36630  0.37757  0.41544  1.0000
  H   H9        1.0  0.98084  0.22621  0.24038  1.0000
  H   H10       1.0  0.51916  0.75961  0.77379  1.0000
  H   H11       1.0  0.01916  0.77379  0.75962  1.0000
  H   H12       1.0  0.48084  0.24039  0.22621  1.0000
  H   H13       1.0  0.21721  0.30494  0.07170  1.0000
  H   H14       1.0  0.28279  0.92830  0.69506  1.0000
  H   H15       1.0  0.78279  0.69506  0.92830  1.0000
  H   H16       1.0  0.71720  0.07170  0.30494  1.0000
  H   H17       1.0  0.32425  0.57356  0.03962  1.0000
  H   H18       1.0  0.17575  0.96038  0.42643  1.0000
  H   H19       1.0  0.67575  0.42644  0.96038  1.0000
  H   H20       1.0  0.82425  0.03962  0.57356  1.0000
  C   C1        1.0  0.03656  0.59005  0.27999  1.0000
  C   C2        1.0  0.46344  0.72001  0.40994  1.0000
  C   C3        1.0  0.96344  0.40995  0.72001  1.0000
  C   C4        1.0  0.53656  0.27999  0.59005  1.0000
  C   C5        1.0  0.96823  0.44507  0.30215  1.0000
  C   C6        1.0  0.53177  0.69785  0.55493  1.0000
  C   C7        1.0  0.03177  0.55494  0.69785  1.0000
  C   C8        1.0  0.46823  0.30215  0.44507  1.0000
  C   C9        1.0  0.03210  0.34016  0.22655  1.0000
  C   C10       1.0  0.46790  0.77345  0.65983  1.0000
  C   C11       1.0  0.96789  0.65984  0.77346  1.0000
  C   C12       1.0  0.53210  0.22655  0.34017  1.0000
  C   C13       1.0  0.16214  0.38460  0.13056  1.0000
  C   C14       1.0  0.33786  0.86944  0.61539  1.0000
  C   C15       1.0  0.83786  0.61540  0.86944  1.0000
  C   C16       1.0  0.66214  0.13056  0.38461  1.0000
  C   C17       1.0  0.22310  0.53221  0.11329  1.0000
  C   C18       1.0  0.27690  0.88671  0.46778  1.0000
  C   C19       1.0  0.77690  0.46778  0.88671  1.0000
  C   C20       1.0  0.72310  0.11328  0.53222  1.0000
  C   C21       1.0  0.03288  0.99124  0.92127  1.0000
  C   C22       1.0  0.46713  0.07874  0.00876  1.0000
  C   C23       1.0  0.96712  0.00877  0.07874  1.0000
  C   C24       1.0  0.53288  0.92126  0.99124  1.0000
  N   N1        1.0  0.16190  0.63328  0.18705  1.0000
  N   N2        1.0  0.33811  0.81295  0.36671  1.0000
  N   N3        1.0  0.83810  0.36672  0.81295  1.0000
  N   N4        1.0  0.66190  0.18705  0.63329  1.0000
  O   O1        1.0  0.15748  0.91406  0.92510  1.0000
  O   O2        1.0  0.34252  0.07490  0.08594  1.0000
  O   O3        1.0  0.84251  0.08595  0.07490  1.0000
  O   O4        1.0  0.65749  0.92510  0.91406  1.0000
  O   O5        1.0  0.95739  0.05432  0.79830  1.0000
  O   O6        1.0  0.54261  0.20170  0.94568  1.0000
  O   O7        1.0  0.04261  0.94568  0.20170  1.0000
  O   O8        1.0  0.45739  0.79830  0.05432  1.0000
