data_image0
_chemical_formula_structural       Sr4H24C24N8O24
_chemical_formula_sum              "Sr4 H24 C24 N8 O24"
_cell_length_a       6.94458
_cell_length_b       10.7927
_cell_length_c       12.336
_cell_angle_alpha    97.8869
_cell_angle_beta     90
_cell_angle_gamma    90.0008

_space_group_name_H-M_alt    "P 1"
_space_group_IT_number       1

loop_
  _space_group_symop_operation_xyz
  'x, y, z'

loop_
  _atom_site_type_symbol
  _atom_site_label
  _atom_site_symmetry_multiplicity
  _atom_site_fract_x
  _atom_site_fract_y
  _atom_site_fract_z
  _atom_site_occupancy
  Sr  Sr1       1.0  0.82248  0.44356  0.63082  1.0000
  Sr  Sr2       1.0  0.32248  0.05644  0.86918  1.0000
  Sr  Sr3       1.0  0.17752  0.55644  0.36918  1.0000
  Sr  Sr4       1.0  0.67753  0.94356  0.13083  1.0000
  H   H1        1.0  0.69323  0.61266  0.09910  1.0000
  H   H2        1.0  0.19321  0.88735  0.40091  1.0000
  H   H3        1.0  0.30676  0.38733  0.90089  1.0000
  H   H4        1.0  0.80675  0.11265  0.59911  1.0000
  H   H5        1.0  0.73569  0.63434  0.89921  1.0000
  H   H6        1.0  0.23570  0.86566  0.60080  1.0000
  H   H7        1.0  0.26433  0.36565  0.10079  1.0000
  H   H8        1.0  0.76431  0.13433  0.39921  1.0000
  H   H9        1.0  0.17460  0.57943  0.79003  1.0000
  H   H10       1.0  0.67460  0.92057  0.70997  1.0000
  H   H11       1.0  0.82538  0.42059  0.20997  1.0000
  H   H12       1.0  0.32539  0.07941  0.29003  1.0000
  H   H13       1.0  0.06512  0.69459  0.76906  1.0000
  H   H14       1.0  0.56512  0.80541  0.73094  1.0000
  H   H15       1.0  0.93485  0.30543  0.23093  1.0000
  H   H16       1.0  0.43486  0.19458  0.26908  1.0000
  H   H17       1.0  0.57791  0.34298  0.42169  1.0000
  H   H18       1.0  0.07791  0.15702  0.07831  1.0000
  H   H19       1.0  0.42209  0.65701  0.57831  1.0000
  H   H20       1.0  0.92210  0.84299  0.92170  1.0000
  H   H21       1.0  0.78589  0.36860  0.37873  1.0000
  H   H22       1.0  0.28588  0.13140  0.12127  1.0000
  H   H23       1.0  0.21409  0.63141  0.62126  1.0000
  H   H24       1.0  0.71412  0.86860  0.87874  1.0000
  C   C1        1.0  0.81697  0.33284  0.89054  1.0000
  C   C2        1.0  0.31696  0.16717  0.60946  1.0000
  C   C3        1.0  0.18305  0.66716  0.10946  1.0000
  C   C4        1.0  0.68304  0.83282  0.39054  1.0000
  C   C5        1.0  0.76883  0.31887  0.99904  1.0000
  C   C6        1.0  0.26882  0.18114  0.50096  1.0000
  C   C7        1.0  0.23118  0.68114  0.00096  1.0000
  C   C8        1.0  0.73117  0.81885  0.49904  1.0000
  C   C9        1.0  0.72470  0.53200  0.03795  1.0000
  C   C10       1.0  0.22470  0.96800  0.46204  1.0000
  C   C11       1.0  0.27529  0.46800  0.96204  1.0000
  C   C12       1.0  0.77529  0.03199  0.53796  1.0000
  C   C13       1.0  0.75022  0.54345  0.92770  1.0000
  C   C14       1.0  0.25022  0.95655  0.57230  1.0000
  C   C15       1.0  0.24980  0.45654  0.07229  1.0000
  C   C16       1.0  0.74978  0.04344  0.42772  1.0000
  C   C17       1.0  0.90891  0.22972  0.81067  1.0000
  C   C18       1.0  0.40890  0.27030  0.68933  1.0000
  C   C19       1.0  0.09111  0.77028  0.18933  1.0000
  C   C20       1.0  0.59111  0.72970  0.31067  1.0000
  C   C21       1.0  0.74269  0.19316  0.03838  1.0000
  C   C22       1.0  0.24268  0.30685  0.46162  1.0000
  C   C23       1.0  0.25732  0.80685  0.96162  1.0000
  C   C24       1.0  0.75730  0.69314  0.53838  1.0000
  N   N1        1.0  0.80079  0.44479  0.85556  1.0000
  N   N2        1.0  0.30078  0.05521  0.64444  1.0000
  N   N3        1.0  0.19924  0.55521  0.14443  1.0000
  N   N4        1.0  0.69922  0.94478  0.35556  1.0000
  N   N5        1.0  0.73161  0.41980  0.07294  1.0000
  N   N6        1.0  0.23159  0.08021  0.42706  1.0000
  N   N7        1.0  0.26840  0.58020  0.92705  1.0000
  N   N8        1.0  0.76839  0.91979  0.57295  1.0000
  O   O1        1.0  0.83908  0.16918  0.12174  1.0000
  O   O2        1.0  0.33907  0.33083  0.37826  1.0000
  O   O3        1.0  0.16094  0.83083  0.87827  1.0000
  O   O4        1.0  0.66092  0.66917  0.62173  1.0000
  O   O5        1.0  0.61727  0.12051  0.99091  1.0000
  O   O6        1.0  0.11724  0.37950  0.50908  1.0000
  O   O7        1.0  0.38276  0.87950  0.00909  1.0000
  O   O8        1.0  0.88274  0.62050  0.49092  1.0000
  O   O9        1.0  0.91494  0.24831  0.71138  1.0000
  O   O10       1.0  0.41495  0.25171  0.78863  1.0000
  O   O11       1.0  0.08508  0.75169  0.28861  1.0000
  O   O12       1.0  0.58506  0.74830  0.21137  1.0000
  O   O13       1.0  0.98000  0.13811  0.85080  1.0000
  O   O14       1.0  0.47998  0.36192  0.64921  1.0000
  O   O15       1.0  0.02002  0.86190  0.14920  1.0000
  O   O16       1.0  0.52003  0.63808  0.35078  1.0000
  O   O17       1.0  0.08531  0.60762  0.73441  1.0000
  O   O18       1.0  0.58531  0.89238  0.76560  1.0000
  O   O19       1.0  0.91467  0.39239  0.26559  1.0000
  O   O20       1.0  0.41468  0.10761  0.23441  1.0000
  O   O21       1.0  0.71526  0.34390  0.44260  1.0000
  O   O22       1.0  0.21526  0.15610  0.05740  1.0000
  O   O23       1.0  0.28474  0.65610  0.55739  1.0000
  O   O24       1.0  0.78475  0.84390  0.94261  1.0000
