data_image0
_chemical_formula_structural       La2H30C32N4O20
_chemical_formula_sum              "La2 H30 C32 N4 O20"
_cell_length_a       7.23588
_cell_length_b       10.6822
_cell_length_c       12.066
_cell_angle_alpha    91.1903
_cell_angle_beta     104.125
_cell_angle_gamma    95.6619

_space_group_name_H-M_alt    "P 1"
_space_group_IT_number       1

loop_
  _space_group_symop_operation_xyz
  'x, y, z'

loop_
  _atom_site_type_symbol
  _atom_site_label
  _atom_site_symmetry_multiplicity
  _atom_site_fract_x
  _atom_site_fract_y
  _atom_site_fract_z
  _atom_site_occupancy
  La  La1       1.0  0.43650  0.32594  0.17154  1.0000
  La  La2       1.0  0.56350  0.67406  0.82846  1.0000
  H   H1        1.0  0.73762  0.44026  0.49510  1.0000
  H   H2        1.0  0.26238  0.55974  0.50490  1.0000
  H   H3        1.0  0.86576  0.27294  0.82378  1.0000
  H   H4        1.0  0.13425  0.72706  0.17621  1.0000
  H   H5        1.0  0.94415  0.07511  0.52634  1.0000
  H   H6        1.0  0.05586  0.92489  0.47365  1.0000
  H   H7        1.0  0.54279  0.87210  0.08860  1.0000
  H   H8        1.0  0.45719  0.12790  0.91140  1.0000
  H   H9        1.0  0.70471  0.60808  0.35168  1.0000
  H   H10       1.0  0.29529  0.39193  0.64833  1.0000
  H   H11       1.0  0.56219  0.97467  0.43788  1.0000
  H   H12       1.0  0.43781  0.02533  0.56212  1.0000
  H   H13       1.0  0.00753  0.98308  0.71681  1.0000
  H   H14       1.0  0.99248  0.01692  0.28319  1.0000
  H   H15       1.0  0.97596  0.06560  0.83468  1.0000
  H   H16       1.0  0.02404  0.93440  0.16533  1.0000
  H   H17       1.0  0.65192  0.66794  0.54533  1.0000
  H   H18       1.0  0.34809  0.33207  0.45468  1.0000
  H   H19       1.0  0.60645  0.81375  0.57448  1.0000
  H   H20       1.0  0.39356  0.18625  0.42552  1.0000
  H   H21       1.0  0.17177  0.21167  0.43107  1.0000
  H   H22       1.0  0.82824  0.78833  0.56893  1.0000
  H   H23       1.0  0.03886  0.22152  0.21735  1.0000
  H   H24       1.0  0.96114  0.77848  0.78266  1.0000
  H   H25       1.0  0.80560  0.39544  0.95351  1.0000
  H   H26       1.0  0.19439  0.60455  0.04648  1.0000
  H   H27       1.0  0.78188  0.42870  0.07529  1.0000
  H   H28       1.0  0.21812  0.57129  0.92471  1.0000
  H   H29       1.0  0.99130  0.28960  0.09978  1.0000
  H   H30       1.0  0.00870  0.71040  0.90022  1.0000
  C   C1        1.0  0.84524  0.25822  0.49933  1.0000
  C   C2        1.0  0.15476  0.74178  0.50066  1.0000
  C   C3        1.0  0.78804  0.36336  0.54797  1.0000
  C   C4        1.0  0.21196  0.63664  0.45203  1.0000
  C   C5        1.0  0.79735  0.36731  0.66543  1.0000
  C   C6        1.0  0.20265  0.63268  0.33457  1.0000
  C   C7        1.0  0.86003  0.26792  0.73281  1.0000
  C   C8        1.0  0.13997  0.73208  0.26719  1.0000
  C   C9        1.0  0.90982  0.15886  0.68429  1.0000
  C   C10       1.0  0.09018  0.84114  0.31571  1.0000
  C   C11       1.0  0.90237  0.15670  0.56619  1.0000
  C   C12       1.0  0.09763  0.84330  0.43380  1.0000
  C   C13       1.0  0.85060  0.25582  0.37571  1.0000
  C   C14       1.0  0.14940  0.74418  0.62429  1.0000
  C   C15       1.0  0.73137  0.47545  0.71973  1.0000
  C   C16       1.0  0.26863  0.52455  0.28026  1.0000
  C   C17       1.0  0.54193  0.93489  0.25956  1.0000
  C   C18       1.0  0.45807  0.06511  0.74044  1.0000
  C   C19       1.0  0.56693  0.84761  0.17789  1.0000
  C   C20       1.0  0.43306  0.15239  0.82211  1.0000
  C   C21       1.0  0.62318  0.72951  0.21154  1.0000
  C   C22       1.0  0.37682  0.27049  0.78846  1.0000
  C   C23       1.0  0.65753  0.69952  0.32665  1.0000
  C   C24       1.0  0.34247  0.30049  0.67336  1.0000
  C   C25       1.0  0.63465  0.78808  0.40693  1.0000
  C   C26       1.0  0.36535  0.21192  0.59307  1.0000
  C   C27       1.0  0.57720  0.90487  0.37458  1.0000
  C   C28       1.0  0.42279  0.09513  0.62543  1.0000
  C   C29       1.0  0.48422  0.06215  0.22684  1.0000
  C   C30       1.0  0.51577  0.93785  0.77317  1.0000
  C   C31       1.0  0.65248  0.63466  0.12589  1.0000
  C   C32       1.0  0.34751  0.36534  0.87411  1.0000
  N   N1        1.0  0.96191  0.05962  0.74925  1.0000
  N   N2        1.0  0.03810  0.94039  0.25075  1.0000
  N   N3        1.0  0.67962  0.76206  0.52744  1.0000
  N   N4        1.0  0.32038  0.23795  0.47256  1.0000
  O   O1        1.0  0.74911  0.32515  0.30778  1.0000
  O   O2        1.0  0.25089  0.67485  0.69222  1.0000
  O   O3        1.0  0.96474  0.18474  0.34496  1.0000
  O   O4        1.0  0.03526  0.81526  0.65504  1.0000
  O   O5        1.0  0.64594  0.55907  0.65722  1.0000
  O   O6        1.0  0.35406  0.44093  0.34278  1.0000
  O   O7        1.0  0.75326  0.48232  0.82790  1.0000
  O   O8        1.0  0.24674  0.51768  0.17210  1.0000
  O   O9        1.0  0.48332  0.09908  0.12736  1.0000
  O   O10       1.0  0.51667  0.90092  0.87264  1.0000
  O   O11       1.0  0.44231  0.13402  0.30221  1.0000
  O   O12       1.0  0.55770  0.86599  0.69779  1.0000
  O   O13       1.0  0.68009  0.67373  0.03195  1.0000
  O   O14       1.0  0.31990  0.32627  0.96805  1.0000
  O   O15       1.0  0.65224  0.51966  0.15222  1.0000
  O   O16       1.0  0.34774  0.48034  0.84779  1.0000
  O   O17       1.0  0.81023  0.35916  0.02875  1.0000
  O   O18       1.0  0.18976  0.64084  0.97125  1.0000
  O   O19       1.0  0.09243  0.24362  0.15107  1.0000
  O   O20       1.0  0.90757  0.75638  0.84893  1.0000
