data_image0
_chemical_formula_structural       Cd8H8C20N12O24
_chemical_formula_sum              "Cd8 H8 C20 N12 O24"
_cell_length_a       7.43624
_cell_length_b       7.67538
_cell_length_c       17.6177
_cell_angle_alpha    89.9999
_cell_angle_beta     90
_cell_angle_gamma    118.999

_space_group_name_H-M_alt    "P 1"
_space_group_IT_number       1

loop_
  _space_group_symop_operation_xyz
  'x, y, z'

loop_
  _atom_site_type_symbol
  _atom_site_label
  _atom_site_symmetry_multiplicity
  _atom_site_fract_x
  _atom_site_fract_y
  _atom_site_fract_z
  _atom_site_occupancy
  Cd  Cd1       1.0  0.08873  0.17736  0.71823  1.0000
  Cd  Cd2       1.0  0.41127  0.82264  0.21823  1.0000
  Cd  Cd3       1.0  0.58873  0.17736  0.78177  1.0000
  Cd  Cd4       1.0  0.91127  0.82264  0.28177  1.0000
  Cd  Cd5       1.0  0.72230  0.44471  0.96655  1.0000
  Cd  Cd6       1.0  0.77770  0.55529  0.46655  1.0000
  Cd  Cd7       1.0  0.22230  0.44472  0.53345  1.0000
  Cd  Cd8       1.0  0.27770  0.55528  0.03345  1.0000
  H   H1        1.0  0.82663  0.65310  0.67545  1.0000
  H   H2        1.0  0.67337  0.34690  0.17545  1.0000
  H   H3        1.0  0.32663  0.65310  0.82455  1.0000
  H   H4        1.0  0.17337  0.34690  0.32455  1.0000
  H   H5        1.0  0.96256  0.92528  0.88935  1.0000
  H   H6        1.0  0.53745  0.07472  0.38935  1.0000
  H   H7        1.0  0.46256  0.92528  0.61065  1.0000
  H   H8        1.0  0.03744  0.07472  0.11065  1.0000
  C   C1        1.0  0.83667  0.67322  0.73655  1.0000
  C   C2        1.0  0.66333  0.32678  0.23655  1.0000
  C   C3        1.0  0.33667  0.67322  0.76345  1.0000
  C   C4        1.0  0.16333  0.32678  0.26345  1.0000
  C   C5        1.0  0.90785  0.81585  0.84430  1.0000
  C   C6        1.0  0.59215  0.18416  0.34430  1.0000
  C   C7        1.0  0.40785  0.81585  0.65570  1.0000
  C   C8        1.0  0.09215  0.18416  0.15570  1.0000
  C   C9        1.0  0.51400  0.02784  0.04326  1.0000
  C   C10       1.0  0.98600  0.97216  0.54326  1.0000
  C   C11       1.0  0.01400  0.02784  0.45674  1.0000
  C   C12       1.0  0.48600  0.97216  0.95673  1.0000
  C   C13       1.0  0.25670  0.30192  0.88734  1.0000
  C   C14       1.0  0.24330  0.69808  0.38733  1.0000
  C   C15       1.0  0.54493  0.30178  0.61268  1.0000
  C   C16       1.0  0.95507  0.69822  0.11268  1.0000
  C   C17       1.0  0.74330  0.69808  0.11266  1.0000
  C   C18       1.0  0.75670  0.30192  0.61266  1.0000
  C   C19       1.0  0.45507  0.69822  0.38732  1.0000
  C   C20       1.0  0.04493  0.30178  0.88732  1.0000
  N   N1        1.0  0.92830  0.85660  0.76900  1.0000
  N   N2        1.0  0.57170  0.14340  0.26900  1.0000
  N   N3        1.0  0.42829  0.85660  0.73100  1.0000
  N   N4        1.0  0.07170  0.14340  0.23100  1.0000
  N   N5        1.0  0.81035  0.62077  0.85761  1.0000
  N   N6        1.0  0.68965  0.37923  0.35761  1.0000
  N   N7        1.0  0.31035  0.62077  0.64239  1.0000
  N   N8        1.0  0.18965  0.37923  0.14239  1.0000
  N   N9        1.0  0.76407  0.52806  0.78825  1.0000
  N   N10       1.0  0.73593  0.47194  0.28825  1.0000
  N   N11       1.0  0.26407  0.52806  0.71175  1.0000
  N   N12       1.0  0.23593  0.47194  0.21175  1.0000
  O   O1        1.0  0.55920  0.11873  0.91116  1.0000
  O   O2        1.0  0.94081  0.88128  0.41116  1.0000
  O   O3        1.0  0.05920  0.11872  0.58884  1.0000
  O   O4        1.0  0.44081  0.88127  0.08884  1.0000
  O   O5        1.0  0.60442  0.20848  0.06224  1.0000
  O   O6        1.0  0.89558  0.79151  0.56224  1.0000
  O   O7        1.0  0.10442  0.20848  0.43776  1.0000
  O   O8        1.0  0.39558  0.79151  0.93776  1.0000
  O   O9        1.0  0.30307  0.23833  0.82855  1.0000
  O   O10       1.0  0.19693  0.76167  0.32855  1.0000
  O   O11       1.0  0.43493  0.23776  0.67144  1.0000
  O   O12       1.0  0.06507  0.76224  0.17144  1.0000
  O   O13       1.0  0.69693  0.76167  0.17144  1.0000
  O   O14       1.0  0.80307  0.23832  0.67145  1.0000
  O   O15       1.0  0.56507  0.76224  0.32856  1.0000
  O   O16       1.0  0.93493  0.23776  0.82856  1.0000
  O   O17       1.0  0.36313  0.36479  0.94739  1.0000
  O   O18       1.0  0.13687  0.63520  0.44739  1.0000
  O   O19       1.0  0.50146  0.36497  0.55271  1.0000
  O   O20       1.0  0.99854  0.63502  0.05271  1.0000
  O   O21       1.0  0.63687  0.63520  0.05261  1.0000
  O   O22       1.0  0.86313  0.36480  0.55261  1.0000
  O   O23       1.0  0.49854  0.63503  0.44729  1.0000
  O   O24       1.0  0.00146  0.36497  0.94729  1.0000
