data_image0
_chemical_formula_structural       Cd8H16C24N24O16
_chemical_formula_sum              "Cd8 H16 C24 N24 O16"
_cell_length_a       8.52149
_cell_length_b       10.2857
_cell_length_c       13.6608
_cell_angle_alpha    89.9999
_cell_angle_beta     90.0001
_cell_angle_gamma    90

_space_group_name_H-M_alt    "P 1"
_space_group_IT_number       1

loop_
  _space_group_symop_operation_xyz
  'x, y, z'

loop_
  _atom_site_type_symbol
  _atom_site_label
  _atom_site_symmetry_multiplicity
  _atom_site_fract_x
  _atom_site_fract_y
  _atom_site_fract_z
  _atom_site_occupancy
  Cd  Cd1       1.0  0.25000  0.52856  0.25000  1.0000
  Cd  Cd2       1.0  0.25000  0.97144  0.75000  1.0000
  Cd  Cd3       1.0  0.75000  0.47144  0.75000  1.0000
  Cd  Cd4       1.0  0.75000  0.02856  0.25000  1.0000
  Cd  Cd5       1.0  0.31576  0.75000  0.50000  1.0000
  Cd  Cd6       1.0  0.18424  0.75000  0.00000  1.0000
  Cd  Cd7       1.0  0.68424  0.25000  0.50000  1.0000
  Cd  Cd8       1.0  0.81576  0.25000  0.00000  1.0000
  H   H1        1.0  0.60372  0.70621  0.28930  1.0000
  H   H2        1.0  0.60372  0.79379  0.71070  1.0000
  H   H3        1.0  0.89628  0.79379  0.78930  1.0000
  H   H4        1.0  0.89628  0.70621  0.21070  1.0000
  H   H5        1.0  0.39628  0.29379  0.71070  1.0000
  H   H6        1.0  0.39628  0.20621  0.28930  1.0000
  H   H7        1.0  0.10372  0.20621  0.21070  1.0000
  H   H8        1.0  0.10371  0.29379  0.78930  1.0000
  H   H9        1.0  0.44761  0.98081  0.08477  1.0000
  H   H10       1.0  0.44761  0.51918  0.91523  1.0000
  H   H11       1.0  0.05239  0.51918  0.58477  1.0000
  H   H12       1.0  0.05239  0.98082  0.41523  1.0000
  H   H13       1.0  0.55239  0.01919  0.91523  1.0000
  H   H14       1.0  0.55239  0.48082  0.08477  1.0000
  H   H15       1.0  0.94761  0.48082  0.41523  1.0000
  H   H16       1.0  0.94761  0.01918  0.58477  1.0000
  C   C1        1.0  0.53895  0.75328  0.23093  1.0000
  C   C2        1.0  0.53896  0.74672  0.76907  1.0000
  C   C3        1.0  0.96104  0.74672  0.73093  1.0000
  C   C4        1.0  0.96105  0.75328  0.26907  1.0000
  C   C5        1.0  0.46105  0.24672  0.76907  1.0000
  C   C6        1.0  0.46104  0.25328  0.23093  1.0000
  C   C7        1.0  0.03896  0.25328  0.26907  1.0000
  C   C8        1.0  0.03896  0.24672  0.73093  1.0000
  C   C9        1.0  0.45921  0.89274  0.12801  1.0000
  C   C10       1.0  0.45921  0.60726  0.87199  1.0000
  C   C11       1.0  0.04078  0.60726  0.62801  1.0000
  C   C12       1.0  0.04078  0.89274  0.37199  1.0000
  C   C13       1.0  0.54078  0.10726  0.87199  1.0000
  C   C14       1.0  0.54078  0.39274  0.12801  1.0000
  C   C15       1.0  0.95921  0.39274  0.37199  1.0000
  C   C16       1.0  0.95921  0.10726  0.62801  1.0000
  C   C17       1.0  0.04415  0.47502  0.04672  1.0000
  C   C18       1.0  0.04415  0.02498  0.95328  1.0000
  C   C19       1.0  0.45585  0.02498  0.54672  1.0000
  C   C20       1.0  0.45585  0.47502  0.45328  1.0000
  C   C21       1.0  0.95585  0.52498  0.95328  1.0000
  C   C22       1.0  0.95585  0.97502  0.04672  1.0000
  C   C23       1.0  0.54415  0.97502  0.45328  1.0000
  C   C24       1.0  0.54415  0.52498  0.54672  1.0000
  N   N1        1.0  0.08577  0.70039  0.31259  1.0000
  N   N2        1.0  0.08577  0.79961  0.68741  1.0000
  N   N3        1.0  0.41423  0.79961  0.81259  1.0000
  N   N4        1.0  0.41423  0.70039  0.18741  1.0000
  N   N5        1.0  0.91423  0.29961  0.68741  1.0000
  N   N6        1.0  0.91423  0.20039  0.31259  1.0000
  N   N7        1.0  0.58577  0.20039  0.18741  1.0000
  N   N8        1.0  0.58577  0.29961  0.81259  1.0000
  N   N9        1.0  0.36240  0.79135  0.12083  1.0000
  N   N10       1.0  0.36239  0.70865  0.87917  1.0000
  N   N11       1.0  0.13760  0.70865  0.62083  1.0000
  N   N12       1.0  0.13760  0.79135  0.37917  1.0000
  N   N13       1.0  0.63760  0.20866  0.87917  1.0000
  N   N14       1.0  0.63760  0.29134  0.12083  1.0000
  N   N15       1.0  0.86240  0.29135  0.37917  1.0000
  N   N16       1.0  0.86239  0.20865  0.62083  1.0000
  N   N17       1.0  0.57168  0.87367  0.19620  1.0000
  N   N18       1.0  0.57168  0.62633  0.80379  1.0000
  N   N19       1.0  0.92832  0.62633  0.69621  1.0000
  N   N20       1.0  0.92832  0.87367  0.30379  1.0000
  N   N21       1.0  0.42832  0.12633  0.80379  1.0000
  N   N22       1.0  0.42832  0.37367  0.19620  1.0000
  N   N23       1.0  0.07168  0.37367  0.30380  1.0000
  N   N24       1.0  0.07168  0.12633  0.69620  1.0000
  O   O1        1.0  0.13968  0.55473  0.08683  1.0000
  O   O2        1.0  0.13968  0.94527  0.91316  1.0000
  O   O3        1.0  0.36032  0.94527  0.58683  1.0000
  O   O4        1.0  0.36032  0.55473  0.41317  1.0000
  O   O5        1.0  0.86032  0.44527  0.91317  1.0000
  O   O6        1.0  0.86032  0.05473  0.08683  1.0000
  O   O7        1.0  0.63968  0.05473  0.41317  1.0000
  O   O8        1.0  0.63968  0.44527  0.58683  1.0000
  O   O9        1.0  0.98293  0.63780  0.92330  1.0000
  O   O10       1.0  0.98294  0.86219  0.07671  1.0000
  O   O11       1.0  0.51707  0.86220  0.42330  1.0000
  O   O12       1.0  0.51706  0.63781  0.57671  1.0000
  O   O13       1.0  0.01706  0.36219  0.07671  1.0000
  O   O14       1.0  0.01707  0.13780  0.92330  1.0000
  O   O15       1.0  0.48294  0.13781  0.57671  1.0000
  O   O16       1.0  0.48294  0.36219  0.42329  1.0000
