data_image0
_chemical_formula_structural       Cu4H24C20N4O12
_chemical_formula_sum              "Cu4 H24 C20 N4 O12"
_cell_length_a       6.01443
_cell_length_b       10.1072
_cell_length_c       10.9524
_cell_angle_alpha    101.839
_cell_angle_beta     90
_cell_angle_gamma    89.9997

_space_group_name_H-M_alt    "P 1"
_space_group_IT_number       1

loop_
  _space_group_symop_operation_xyz
  'x, y, z'

loop_
  _atom_site_type_symbol
  _atom_site_label
  _atom_site_symmetry_multiplicity
  _atom_site_fract_x
  _atom_site_fract_y
  _atom_site_fract_z
  _atom_site_occupancy
  Cu  Cu1       1.0  0.01119  0.90438  0.20329  1.0000
  Cu  Cu2       1.0  0.51120  0.59562  0.29671  1.0000
  Cu  Cu3       1.0  0.98878  0.09561  0.79671  1.0000
  Cu  Cu4       1.0  0.48879  0.40439  0.70330  1.0000
  H   H1        1.0  0.61657  0.84374  0.68270  1.0000
  H   H2        1.0  0.11657  0.65625  0.81730  1.0000
  H   H3        1.0  0.38348  0.15628  0.31732  1.0000
  H   H4        1.0  0.88344  0.34372  0.18269  1.0000
  H   H5        1.0  0.46077  0.89177  0.56037  1.0000
  H   H6        1.0  0.96076  0.60822  0.93963  1.0000
  H   H7        1.0  0.53926  0.10825  0.43966  1.0000
  H   H8        1.0  0.03925  0.39175  0.06035  1.0000
  H   H9        1.0  0.72042  0.97146  0.60605  1.0000
  H   H10       1.0  0.22042  0.52854  0.89395  1.0000
  H   H11       1.0  0.27962  0.02856  0.39396  1.0000
  H   H12       1.0  0.77960  0.47144  0.10605  1.0000
  H   H13       1.0  0.07130  0.66254  0.47433  1.0000
  H   H14       1.0  0.57129  0.83746  0.02566  1.0000
  H   H15       1.0  0.92869  0.33746  0.52567  1.0000
  H   H16       1.0  0.42868  0.16254  0.97433  1.0000
  H   H17       1.0  0.96829  0.69867  0.63092  1.0000
  H   H18       1.0  0.46828  0.80133  0.86908  1.0000
  H   H19       1.0  0.03173  0.30134  0.36908  1.0000
  H   H20       1.0  0.53170  0.19867  0.13092  1.0000
  H   H21       1.0  0.08303  0.83091  0.56437  1.0000
  H   H22       1.0  0.58302  0.66909  0.93562  1.0000
  H   H23       1.0  0.91700  0.16909  0.43562  1.0000
  H   H24       1.0  0.41697  0.33092  0.06438  1.0000
  C   C1        1.0  0.56855  0.55928  0.53488  1.0000
  C   C2        1.0  0.06853  0.94071  0.96512  1.0000
  C   C3        1.0  0.43144  0.44074  0.46514  1.0000
  C   C4        1.0  0.93142  0.05926  0.03486  1.0000
  C   C5        1.0  0.75287  0.76769  0.49820  1.0000
  C   C6        1.0  0.25286  0.73231  0.00180  1.0000
  C   C7        1.0  0.24714  0.23232  0.50181  1.0000
  C   C8        1.0  0.74712  0.26769  0.99819  1.0000
  C   C9        1.0  0.78349  0.81658  0.37489  1.0000
  C   C10       1.0  0.28347  0.68343  0.12511  1.0000
  C   C11       1.0  0.21655  0.18345  0.62512  1.0000
  C   C12       1.0  0.71652  0.31657  0.87489  1.0000
  C   C13       1.0  0.98508  0.73770  0.54516  1.0000
  C   C14       1.0  0.48507  0.76230  0.95484  1.0000
  C   C15       1.0  0.01494  0.26231  0.45484  1.0000
  C   C16       1.0  0.51491  0.23770  0.04516  1.0000
  C   C17       1.0  0.62901  0.87572  0.59309  1.0000
  C   C18       1.0  0.12901  0.62427  0.90691  1.0000
  C   C19       1.0  0.37102  0.12430  0.40692  1.0000
  C   C20       1.0  0.87099  0.37571  0.09308  1.0000
  N   N1        1.0  0.62025  0.64427  0.46427  1.0000
  N   N2        1.0  0.12023  0.85572  0.03573  1.0000
  N   N3        1.0  0.37974  0.35574  0.53574  1.0000
  N   N4        1.0  0.87972  0.14425  0.96426  1.0000
  O   O1        1.0  0.89665  0.92242  0.37402  1.0000
  O   O2        1.0  0.39663  0.57757  0.12599  1.0000
  O   O3        1.0  0.10338  0.07758  0.62600  1.0000
  O   O4        1.0  0.60337  0.42243  0.87401  1.0000
  O   O5        1.0  0.61770  0.56507  0.64997  1.0000
  O   O6        1.0  0.11768  0.93491  0.85003  1.0000
  O   O7        1.0  0.38229  0.43494  0.35004  1.0000
  O   O8        1.0  0.88226  0.06506  0.14995  1.0000
  O   O9        1.0  0.70230  0.74687  0.27363  1.0000
  O   O10       1.0  0.20229  0.75313  0.22638  1.0000
  O   O11       1.0  0.29772  0.25314  0.72638  1.0000
  O   O12       1.0  0.79771  0.24686  0.77362  1.0000
