data_image0
_chemical_formula_structural       Ag4H36C24N12Cl4O20
_chemical_formula_sum              "Ag4 H36 C24 N12 Cl4 O20"
_cell_length_a       8.10972
_cell_length_b       10.7509
_cell_length_c       12.0756
_cell_angle_alpha    90
_cell_angle_beta     103.048
_cell_angle_gamma    90

_space_group_name_H-M_alt    "P 1"
_space_group_IT_number       1

loop_
  _space_group_symop_operation_xyz
  'x, y, z'

loop_
  _atom_site_type_symbol
  _atom_site_label
  _atom_site_symmetry_multiplicity
  _atom_site_fract_x
  _atom_site_fract_y
  _atom_site_fract_z
  _atom_site_occupancy
  Ag  Ag1       1.0  0.50925  0.26444  0.20747  1.0000
  Ag  Ag2       1.0  0.99075  0.76444  0.29254  1.0000
  Ag  Ag3       1.0  0.49075  0.73556  0.79253  1.0000
  Ag  Ag4       1.0  0.00925  0.23556  0.70747  1.0000
  H   H1        1.0  0.04306  0.32106  0.93394  1.0000
  H   H2        1.0  0.45694  0.82106  0.56606  1.0000
  H   H3        1.0  0.95694  0.67894  0.06606  1.0000
  H   H4        1.0  0.54306  0.17894  0.43394  1.0000
  H   H5        1.0  0.18993  0.34468  0.06222  1.0000
  H   H6        1.0  0.31007  0.84468  0.43778  1.0000
  H   H7        1.0  0.81007  0.65532  0.93778  1.0000
  H   H8        1.0  0.68993  0.15532  0.56222  1.0000
  H   H9        1.0  0.93954  0.09420  0.09702  1.0000
  H   H10       1.0  0.56046  0.59420  0.40298  1.0000
  H   H11       1.0  0.06045  0.90580  0.90298  1.0000
  H   H12       1.0  0.43955  0.40580  0.59702  1.0000
  H   H13       1.0  0.86310  0.14437  0.95236  1.0000
  H   H14       1.0  0.63689  0.64438  0.54764  1.0000
  H   H15       1.0  0.13690  0.85563  0.04764  1.0000
  H   H16       1.0  0.36311  0.35563  0.45236  1.0000
  H   H17       1.0  0.80511  0.99411  0.99560  1.0000
  H   H18       1.0  0.69489  0.49411  0.50439  1.0000
  H   H19       1.0  0.19489  0.00589  0.00439  1.0000
  H   H20       1.0  0.30511  0.50589  0.49561  1.0000
  H   H21       1.0  0.19018  0.08955  0.63960  1.0000
  H   H22       1.0  0.30982  0.58955  0.86040  1.0000
  H   H23       1.0  0.80982  0.91045  0.36040  1.0000
  H   H24       1.0  0.69018  0.41045  0.13960  1.0000
  H   H25       1.0  0.40832  0.10551  0.63873  1.0000
  H   H26       1.0  0.09168  0.60551  0.86127  1.0000
  H   H27       1.0  0.59168  0.89449  0.36127  1.0000
  H   H28       1.0  0.90833  0.39449  0.13873  1.0000
  H   H29       1.0  0.33485  0.96835  0.69323  1.0000
  H   H30       1.0  0.16515  0.46835  0.80677  1.0000
  H   H31       1.0  0.66515  0.03165  0.30677  1.0000
  H   H32       1.0  0.83485  0.53165  0.19323  1.0000
  H   H33       1.0  0.61248  0.05635  0.84213  1.0000
  H   H34       1.0  0.88752  0.55635  0.65786  1.0000
  H   H35       1.0  0.38752  0.94366  0.15786  1.0000
  H   H36       1.0  0.11248  0.44365  0.34214  1.0000
  C   C1        1.0  0.83408  0.09060  0.02274  1.0000
  C   C2        1.0  0.66592  0.59060  0.47726  1.0000
  C   C3        1.0  0.16592  0.90940  0.97726  1.0000
  C   C4        1.0  0.33408  0.40940  0.52274  1.0000
  C   C5        1.0  0.54630  0.15612  0.98253  1.0000
  C   C6        1.0  0.95370  0.65612  0.51747  1.0000
  C   C7        1.0  0.45370  0.84388  0.01747  1.0000
  C   C8        1.0  0.04630  0.34388  0.48253  1.0000
  C   C9        1.0  0.31926  0.06990  0.68728  1.0000
  C   C10       1.0  0.18073  0.56990  0.81272  1.0000
  C   C11       1.0  0.68073  0.93010  0.31272  1.0000
  C   C12       1.0  0.81927  0.43010  0.18728  1.0000
  C   C13       1.0  0.27540  0.23627  0.94778  1.0000
  C   C14       1.0  0.22460  0.73627  0.55222  1.0000
  C   C15       1.0  0.72460  0.76373  0.05222  1.0000
  C   C16       1.0  0.77540  0.26373  0.44778  1.0000
  C   C17       1.0  0.35698  0.12467  0.80375  1.0000
  C   C18       1.0  0.14302  0.62467  0.69625  1.0000
  C   C19       1.0  0.64302  0.87533  0.19625  1.0000
  C   C20       1.0  0.85698  0.37533  0.30375  1.0000
  C   C21       1.0  0.51656  0.10667  0.87345  1.0000
  C   C22       1.0  0.98344  0.60666  0.62655  1.0000
  C   C23       1.0  0.48344  0.89333  0.12655  1.0000
  C   C24       1.0  0.01656  0.39333  0.37345  1.0000
  N   N1        1.0  0.42621  0.21715  0.02146  1.0000
  N   N2        1.0  0.07379  0.71715  0.47854  1.0000
  N   N3        1.0  0.57379  0.78285  0.97854  1.0000
  N   N4        1.0  0.92621  0.28285  0.52146  1.0000
  N   N5        1.0  0.23628  0.19073  0.83929  1.0000
  N   N6        1.0  0.26372  0.69072  0.66071  1.0000
  N   N7        1.0  0.76372  0.80928  0.16071  1.0000
  N   N8        1.0  0.73628  0.30927  0.33929  1.0000
  N   N9        1.0  0.15864  0.30224  0.98469  1.0000
  N   N10       1.0  0.34136  0.80224  0.51531  1.0000
  N   N11       1.0  0.84136  0.69776  0.01531  1.0000
  N   N12       1.0  0.65864  0.19776  0.48469  1.0000
  Cl  Cl1       1.0  0.30386  0.57260  0.18918  1.0000
  Cl  Cl2       1.0  0.19614  0.07260  0.31082  1.0000
  Cl  Cl3       1.0  0.69614  0.42739  0.81082  1.0000
  Cl  Cl4       1.0  0.80386  0.92740  0.68918  1.0000
  O   O1        1.0  0.27038  0.43803  0.19927  1.0000
  O   O2        1.0  0.22962  0.93803  0.30073  1.0000
  O   O3        1.0  0.72962  0.56197  0.80073  1.0000
  O   O4        1.0  0.77038  0.06197  0.69927  1.0000
  O   O5        1.0  0.47969  0.59120  0.18677  1.0000
  O   O6        1.0  0.02031  0.09120  0.31323  1.0000
  O   O7        1.0  0.52031  0.40880  0.81323  1.0000
  O   O8        1.0  0.97969  0.90880  0.68677  1.0000
  O   O9        1.0  0.26477  0.63564  0.28813  1.0000
  O   O10       1.0  0.23523  0.13564  0.21187  1.0000
  O   O11       1.0  0.73523  0.36436  0.71187  1.0000
  O   O12       1.0  0.76477  0.86436  0.78813  1.0000
  O   O13       1.0  0.19340  0.62023  0.08510  1.0000
  O   O14       1.0  0.30660  0.12023  0.41490  1.0000
  O   O15       1.0  0.80660  0.37977  0.91490  1.0000
  O   O16       1.0  0.69340  0.87977  0.58510  1.0000
  O   O17       1.0  0.69347  0.14664  0.05933  1.0000
  O   O18       1.0  0.80653  0.64664  0.44067  1.0000
  O   O19       1.0  0.30653  0.85336  0.94067  1.0000
  O   O20       1.0  0.19347  0.35336  0.55933  1.0000
