data_image0
_chemical_formula_structural       Cu2H24C28N2Cl2O8
_chemical_formula_sum              "Cu2 H24 C28 N2 Cl2 O8"
_cell_length_a       7.77813
_cell_length_b       7.91598
_cell_length_c       13.5535
_cell_angle_alpha    91.213
_cell_angle_beta     103.651
_cell_angle_gamma    118.12

_space_group_name_H-M_alt    "P 1"
_space_group_IT_number       1

loop_
  _space_group_symop_operation_xyz
  'x, y, z'

loop_
  _atom_site_type_symbol
  _atom_site_label
  _atom_site_symmetry_multiplicity
  _atom_site_fract_x
  _atom_site_fract_y
  _atom_site_fract_z
  _atom_site_occupancy
  Cu  Cu1       1.0  0.70022  0.43262  0.37525  1.0000
  Cu  Cu2       1.0  0.54924  0.69728  0.45305  1.0000
  H   H1        1.0  0.73507  0.48954  0.64200  1.0000
  H   H2        1.0  0.19932  0.05431  0.88370  1.0000
  H   H3        1.0  0.38305  0.30132  0.78230  1.0000
  H   H4        1.0  0.32187  0.20528  0.59424  1.0000
  H   H5        1.0  0.06837  0.86910  0.51041  1.0000
  H   H6        1.0  0.31993  0.46479  0.18410  1.0000
  H   H7        1.0  0.68879  0.69827  0.94100  1.0000
  H   H8        1.0  0.02478  0.97049  0.03839  1.0000
  H   H9        1.0  0.09035  0.07604  0.22566  1.0000
  H   H10       1.0  0.82468  0.90321  0.31235  1.0000
  H   H11       1.0  0.98105  0.59246  0.25171  1.0000
  H   H12       1.0  0.99455  0.50366  0.07932  1.0000
  H   H13       1.0  0.41598  0.98307  0.04427  1.0000
  H   H14       1.0  0.42603  0.09683  0.21618  1.0000
  H   H15       1.0  0.83960  0.28877  0.91695  1.0000
  H   H16       1.0  0.46643  0.89619  0.91295  1.0000
  H   H17       1.0  0.82525  0.21475  0.75555  1.0000
  H   H18       1.0  0.79969  0.07951  0.58545  1.0000
  H   H19       1.0  0.34021  0.53518  0.60276  1.0000
  H   H20       1.0  0.34355  0.64798  0.77484  1.0000
  H   H21       1.0  0.31514  0.15729  0.41301  1.0000
  H   H22       1.0  0.38902  0.00786  0.38682  1.0000
  H   H23       1.0  0.22330  0.37709  0.37369  1.0000
  H   H24       1.0  0.06375  0.31230  0.43754  1.0000
  C   C1        1.0  0.93236  0.44798  0.57014  1.0000
  C   C2        1.0  0.83106  0.56755  0.59203  1.0000
  C   C3        1.0  0.99177  0.76877  0.64808  1.0000
  C   C4        1.0  0.03557  0.82422  0.75379  1.0000
  C   C5        1.0  0.17269  0.01492  0.80180  1.0000
  C   C6        1.0  0.27537  0.15291  0.74444  1.0000
  C   C7        1.0  0.24115  0.09970  0.63987  1.0000
  C   C8        1.0  0.09945  0.91026  0.59264  1.0000
  C   C9        1.0  0.35795  0.72790  0.25721  1.0000
  C   C10       1.0  0.44701  0.59796  0.23424  1.0000
  C   C11       1.0  0.60397  0.70249  0.17720  1.0000
  C   C12       1.0  0.56898  0.65079  0.07196  1.0000
  C   C13       1.0  0.71953  0.74476  0.02239  1.0000
  C   C14       1.0  0.90776  0.89739  0.07751  1.0000
  C   C15       1.0  0.94453  0.95589  0.18168  1.0000
  C   C16       1.0  0.79421  0.85813  0.23060  1.0000
  C   C17       1.0  0.86056  0.45779  0.20346  1.0000
  C   C18       1.0  0.86581  0.40656  0.10622  1.0000
  C   C19       1.0  0.70671  0.23311  0.04442  1.0000
  C   C20       1.0  0.54554  0.12009  0.08575  1.0000
  C   C21       1.0  0.54908  0.18194  0.18289  1.0000
  C   C22       1.0  0.71530  0.17957  0.94314  1.0000
  C   C23       1.0  0.58523  0.00552  0.88375  1.0000
  C   C24       1.0  0.58647  0.94230  0.78271  1.0000
  C   C25       1.0  0.71458  0.06301  0.72644  1.0000
  C   C26       1.0  0.70087  0.98905  0.62972  1.0000
  C   C27       1.0  0.44580  0.68415  0.63991  1.0000
  C   C28       1.0  0.45005  0.74877  0.73671  1.0000
  N   N1        1.0  0.70471  0.34729  0.24168  1.0000
  N   N2        1.0  0.56815  0.80285  0.58671  1.0000
  Cl  Cl1       1.0  0.91825  0.65503  0.83012  1.0000
  Cl  Cl2       1.0  0.33418  0.46385  0.99762  1.0000
  O   O1        1.0  0.91017  0.39878  0.47335  1.0000
  O   O2        1.0  0.02747  0.40550  0.64240  1.0000
  O   O3        1.0  0.71343  0.57352  0.49729  1.0000
  O   O4        1.0  0.38578  0.78061  0.35464  1.0000
  O   O5        1.0  0.26744  0.77607  0.18595  1.0000
  O   O6        1.0  0.52805  0.55544  0.32876  1.0000
  O   O7        1.0  0.43282  0.14554  0.40750  1.0000
  O   O8        1.0  0.15605  0.27740  0.41357  1.0000
