data_image0
_chemical_formula_structural       MnH12C12Cl4O8
_chemical_formula_sum              "Mn1 H12 C12 Cl4 O8"
_cell_length_a       7.34104
_cell_length_b       7.23695
_cell_length_c       10.6972
_cell_angle_alpha    77.9622
_cell_angle_beta     74.3178
_cell_angle_gamma    69.6232

_space_group_name_H-M_alt    "P 1"
_space_group_IT_number       1

loop_
  _space_group_symop_operation_xyz
  'x, y, z'

loop_
  _atom_site_type_symbol
  _atom_site_label
  _atom_site_symmetry_multiplicity
  _atom_site_fract_x
  _atom_site_fract_y
  _atom_site_fract_z
  _atom_site_occupancy
  Mn  Mn1       1.0  0.50000  0.50000  0.50000  1.0000
  H   H1        1.0  0.26266  0.19571  0.52761  1.0000
  H   H2        1.0  0.73734  0.80429  0.47239  1.0000
  H   H3        1.0  0.19950  0.32673  0.37551  1.0000
  H   H4        1.0  0.80050  0.67328  0.62449  1.0000
  H   H5        1.0  0.08742  0.68986  0.35522  1.0000
  H   H6        1.0  0.91258  0.31014  0.64478  1.0000
  H   H7        1.0  0.07269  0.80135  0.49421  1.0000
  H   H8        1.0  0.92732  0.19865  0.50578  1.0000
  H   H9        1.0  0.39707  0.87315  0.49901  1.0000
  H   H10       1.0  0.60292  0.12684  0.50099  1.0000
  H   H11       1.0  0.40892  0.82537  0.64648  1.0000
  H   H12       1.0  0.59109  0.17464  0.35352  1.0000
  C   C1        1.0  0.67366  0.87897  0.04230  1.0000
  C   C2        1.0  0.32633  0.12103  0.95770  1.0000
  C   C3        1.0  0.68223  0.95426  0.90952  1.0000
  C   C4        1.0  0.31776  0.04574  0.09048  1.0000
  C   C5        1.0  0.49134  0.92470  0.13272  1.0000
  C   C6        1.0  0.50865  0.07530  0.86728  1.0000
  C   C7        1.0  0.48321  0.84773  0.27594  1.0000
  C   C8        1.0  0.51678  0.15226  0.72405  1.0000
  C   C9        1.0  0.16046  0.32582  0.48258  1.0000
  C   C10       1.0  0.83953  0.67419  0.51742  1.0000
  C   C11       1.0  0.05074  0.67715  0.46294  1.0000
  C   C12       1.0  0.94926  0.32286  0.53706  1.0000
  Cl  Cl1       1.0  0.88613  0.73181  0.09571  1.0000
  Cl  Cl2       1.0  0.11388  0.26820  0.90429  1.0000
  Cl  Cl3       1.0  0.90637  0.89781  0.79770  1.0000
  Cl  Cl4       1.0  0.09364  0.10220  0.20229  1.0000
  O   O1        1.0  0.47655  0.96844  0.34893  1.0000
  O   O2        1.0  0.52345  0.03153  0.65107  1.0000
  O   O3        1.0  0.48165  0.66968  0.31230  1.0000
  O   O4        1.0  0.51835  0.33033  0.68769  1.0000
  O   O5        1.0  0.36137  0.78491  0.58214  1.0000
  O   O6        1.0  0.63864  0.21508  0.41786  1.0000
  O   O7        1.0  0.18801  0.49784  0.51441  1.0000
  O   O8        1.0  0.81199  0.50216  0.48559  1.0000
