data_image0
_chemical_formula_structural       Zn2P4H36C36N4O12
_chemical_formula_sum              "Zn2 P4 H36 C36 N4 O12"
_cell_length_a       9.20443
_cell_length_b       9.84358
_cell_length_c       12.1302
_cell_angle_alpha    88.3158
_cell_angle_beta     79.0029
_cell_angle_gamma    65.5016

_space_group_name_H-M_alt    "P 1"
_space_group_IT_number       1

loop_
  _space_group_symop_operation_xyz
  'x, y, z'

loop_
  _atom_site_type_symbol
  _atom_site_label
  _atom_site_symmetry_multiplicity
  _atom_site_fract_x
  _atom_site_fract_y
  _atom_site_fract_z
  _atom_site_occupancy
  Zn  Zn1       1.0  0.32552  0.41328  0.15607  1.0000
  Zn  Zn2       1.0  0.67449  0.58672  0.84392  1.0000
  P   P1        1.0  0.32201  0.70812  0.02431  1.0000
  P   P2        1.0  0.67799  0.29188  0.97568  1.0000
  P   P3        1.0  0.33655  0.52149  0.39786  1.0000
  P   P4        1.0  0.66345  0.47850  0.60214  1.0000
  H   H1        1.0  0.36955  0.67224  0.19408  1.0000
  H   H2        1.0  0.63045  0.32776  0.80592  1.0000
  H   H3        1.0  0.41906  0.64172  0.51036  1.0000
  H   H4        1.0  0.58095  0.35827  0.48964  1.0000
  H   H5        1.0  0.38759  0.99079  0.94253  1.0000
  H   H6        1.0  0.61241  0.00921  0.05747  1.0000
  H   H7        1.0  0.34291  0.99410  0.09004  1.0000
  H   H8        1.0  0.65708  0.00590  0.90996  1.0000
  H   H9        1.0  0.26348  0.16380  0.01979  1.0000
  H   H10       1.0  0.73652  0.83620  0.98021  1.0000
  H   H11       1.0  0.00642  0.74781  0.00011  1.0000
  H   H12       1.0  0.99358  0.25219  0.99989  1.0000
  H   H13       1.0  0.73508  0.69810  0.47715  1.0000
  H   H14       1.0  0.26492  0.30190  0.52285  1.0000
  H   H15       1.0  0.85962  0.85295  0.39520  1.0000
  H   H16       1.0  0.14039  0.14704  0.60480  1.0000
  H   H17       1.0  0.02296  0.74083  0.28616  1.0000
  H   H18       1.0  0.97704  0.25916  0.71384  1.0000
  H   H19       1.0  0.06522  0.81163  0.40206  1.0000
  H   H20       1.0  0.93478  0.18837  0.59794  1.0000
  H   H21       1.0  0.59387  0.14445  0.25009  1.0000
  H   H22       1.0  0.40613  0.85555  0.74991  1.0000
  H   H23       1.0  0.61555  0.90941  0.34893  1.0000
  H   H24       1.0  0.38445  0.09059  0.65107  1.0000
  H   H25       1.0  0.36311  0.86103  0.40041  1.0000
  H   H26       1.0  0.63688  0.13898  0.59959  1.0000
  H   H27       1.0  0.10447  0.04663  0.35457  1.0000
  H   H28       1.0  0.89553  0.95337  0.64543  1.0000
  H   H29       1.0  0.89094  0.22648  0.32869  1.0000
  H   H30       1.0  0.10906  0.77353  0.67131  1.0000
  H   H31       1.0  0.66007  0.42180  0.25851  1.0000
  H   H32       1.0  0.33993  0.57820  0.74149  1.0000
  H   H33       1.0  0.70720  0.62047  0.14213  1.0000
  H   H34       1.0  0.29280  0.37954  0.85786  1.0000
  H   H35       1.0  0.99321  0.60857  0.10000  1.0000
  H   H36       1.0  0.00678  0.39144  0.90001  1.0000
  C   C1        1.0  0.29126  0.04415  0.01658  1.0000
  C   C2        1.0  0.70874  0.95585  0.98342  1.0000
  C   C3        1.0  0.14269  0.01902  0.01050  1.0000
  C   C4        1.0  0.85730  0.98097  0.98950  1.0000
  C   C5        1.0  0.14252  0.87569  0.01324  1.0000
  C   C6        1.0  0.85748  0.12431  0.98675  1.0000
  C   C7        1.0  0.00157  0.86019  0.00172  1.0000
  C   C8        1.0  0.99843  0.13981  0.99828  1.0000
  C   C9        1.0  0.85317  0.61131  0.48597  1.0000
  C   C10       1.0  0.14683  0.38869  0.51403  1.0000
  C   C11       1.0  0.98476  0.76600  0.37762  1.0000
  C   C12       1.0  0.01525  0.23400  0.62238  1.0000
  C   C13       1.0  0.99525  0.62866  0.43999  1.0000
  C   C14       1.0  0.00475  0.37134  0.56001  1.0000
  C   C15       1.0  0.14449  0.51375  0.45498  1.0000
  C   C16       1.0  0.85551  0.48624  0.54503  1.0000
  C   C17       1.0  0.48895  0.11806  0.27630  1.0000
  C   C18       1.0  0.51105  0.88194  0.72369  1.0000
  C   C19       1.0  0.49932  0.98887  0.33109  1.0000
  C   C20       1.0  0.50068  0.01112  0.66891  1.0000
  C   C21       1.0  0.35943  0.96266  0.36032  1.0000
  C   C22       1.0  0.64057  0.03734  0.63968  1.0000
  C   C23       1.0  0.21407  0.06669  0.33462  1.0000
  C   C24       1.0  0.78593  0.93331  0.66538  1.0000
  C   C25       1.0  0.21235  0.19445  0.28018  1.0000
  C   C26       1.0  0.78765  0.80555  0.71982  1.0000
  C   C27       1.0  0.06562  0.31018  0.24667  1.0000
  C   C28       1.0  0.93438  0.68983  0.75333  1.0000
  C   C29       1.0  0.91075  0.31091  0.27589  1.0000
  C   C30       1.0  0.08925  0.68910  0.72411  1.0000
  C   C31       1.0  0.78035  0.42216  0.23811  1.0000
  C   C32       1.0  0.21964  0.57785  0.76189  1.0000
  C   C33       1.0  0.80639  0.53271  0.17381  1.0000
  C   C34       1.0  0.19361  0.46730  0.82619  1.0000
  C   C35       1.0  0.96322  0.52624  0.14914  1.0000
  C   C36       1.0  0.03677  0.47377  0.85086  1.0000
  N   N1        1.0  0.34893  0.21752  0.25156  1.0000
  N   N2        1.0  0.65107  0.78249  0.74844  1.0000
  N   N3        1.0  0.08972  0.41736  0.18350  1.0000
  N   N4        1.0  0.91027  0.58265  0.81650  1.0000
  O   O1        1.0  0.44469  0.69928  0.91840  1.0000
  O   O2        1.0  0.55532  0.30072  0.08160  1.0000
  O   O3        1.0  0.38839  0.73571  0.13045  1.0000
  O   O4        1.0  0.61161  0.26429  0.86955  1.0000
  O   O5        1.0  0.27096  0.57915  0.04365  1.0000
  O   O6        1.0  0.72904  0.42085  0.95635  1.0000
  O   O7        1.0  0.47366  0.37724  0.42042  1.0000
  O   O8        1.0  0.52635  0.62276  0.57959  1.0000
  O   O9        1.0  0.33311  0.66401  0.45567  1.0000
  O   O10       1.0  0.66689  0.33599  0.54433  1.0000
  O   O11       1.0  0.34015  0.54957  0.27205  1.0000
  O   O12       1.0  0.65985  0.45042  0.72795  1.0000
