data_image0
_chemical_formula_structural       Cu2P4H36C24N4O16
_chemical_formula_sum              "Cu2 P4 H36 C24 N4 O16"
_cell_length_a       8.94543
_cell_length_b       9.48982
_cell_length_c       11.1083
_cell_angle_alpha    73.681
_cell_angle_beta     66.2647
_cell_angle_gamma    61.8833

_space_group_name_H-M_alt    "P 1"
_space_group_IT_number       1

loop_
  _space_group_symop_operation_xyz
  'x, y, z'

loop_
  _atom_site_type_symbol
  _atom_site_label
  _atom_site_symmetry_multiplicity
  _atom_site_fract_x
  _atom_site_fract_y
  _atom_site_fract_z
  _atom_site_occupancy
  Cu  Cu1       1.0  1.00000  0.50000  0.00000  1.0000
  Cu  Cu2       1.0  0.50000  1.00000  0.50000  1.0000
  P   P1        1.0  0.86550  0.80077  0.78915  1.0000
  P   P2        1.0  0.45541  0.69924  0.71090  1.0000
  P   P3        1.0  0.13450  0.19923  0.21085  1.0000
  P   P4        1.0  0.54459  0.30076  0.28910  1.0000
  H   H1        1.0  0.68240  0.54178  0.91089  1.0000
  H   H2        1.0  0.13524  0.95829  0.58908  1.0000
  H   H3        1.0  0.31760  0.45822  0.08911  1.0000
  H   H4        1.0  0.86476  0.04172  0.41092  1.0000
  H   H5        1.0  0.63940  0.46127  0.05619  1.0000
  H   H6        1.0  0.15699  0.03871  0.44374  1.0000
  H   H7        1.0  0.36060  0.53873  0.94381  1.0000
  H   H8        1.0  0.84301  0.96130  0.55626  1.0000
  H   H9        1.0  0.72700  0.74315  0.69397  1.0000
  H   H10       1.0  0.16406  0.75674  0.80607  1.0000
  H   H11       1.0  0.27300  0.25685  0.30603  1.0000
  H   H12       1.0  0.83594  0.24326  0.19393  1.0000
  H   H13       1.0  0.77230  0.17229  0.98542  1.0000
  H   H14       1.0  0.93011  0.32763  0.51457  1.0000
  H   H15       1.0  0.22770  0.82771  0.01458  1.0000
  H   H16       1.0  0.06989  0.67237  0.48543  1.0000
  H   H17       1.0  0.85732  0.10993  0.82422  1.0000
  H   H18       1.0  0.79156  0.38999  0.67578  1.0000
  H   H19       1.0  0.14268  0.89007  0.17578  1.0000
  H   H20       1.0  0.20844  0.61001  0.32422  1.0000
  H   H21       1.0  0.92372  0.97091  0.95507  1.0000
  H   H22       1.0  0.84974  0.52903  0.54493  1.0000
  H   H23       1.0  0.07628  0.02909  0.04492  1.0000
  H   H24       1.0  0.15026  0.47097  0.45507  1.0000
  H   H25       1.0  0.51584  0.79015  0.89997  1.0000
  H   H26       1.0  0.20607  0.70979  0.60014  1.0000
  H   H27       1.0  0.48416  0.20985  0.10003  1.0000
  H   H28       1.0  0.79393  0.29021  0.39986  1.0000
  H   H29       1.0  0.93930  0.33847  0.84485  1.0000
  H   H30       1.0  0.12233  0.16176  0.65543  1.0000
  H   H31       1.0  0.06070  0.66153  0.15514  1.0000
  H   H32       1.0  0.87767  0.83824  0.34457  1.0000
  H   H33       1.0  0.40270  0.34110  0.84170  1.0000
  H   H34       1.0  0.58518  0.15906  0.65871  1.0000
  H   H35       1.0  0.59730  0.65890  0.15830  1.0000
  H   H36       1.0  0.41482  0.84094  0.34130  1.0000
  C   C1        1.0  0.80962  0.07450  0.93099  1.0000
  C   C2        1.0  0.81522  0.42541  0.56900  1.0000
  C   C3        1.0  0.19039  0.92550  0.06900  1.0000
  C   C4        1.0  0.18478  0.57459  0.43100  1.0000
  C   C5        1.0  0.65353  0.03305  0.96515  1.0000
  C   C6        1.0  0.65181  0.46686  0.53484  1.0000
  C   C7        1.0  0.34647  0.96695  0.03485  1.0000
  C   C8        1.0  0.34819  0.53314  0.46516  1.0000
  C   C9        1.0  0.66088  0.91339  0.90821  1.0000
  C   C10       1.0  0.48261  0.58649  0.59183  1.0000
  C   C11       1.0  0.33912  0.08661  0.09179  1.0000
  C   C12       1.0  0.51739  0.41351  0.40817  1.0000
  C   C13       1.0  0.50887  0.88313  0.94360  1.0000
  C   C14       1.0  0.33569  0.61684  0.55646  1.0000
  C   C15       1.0  0.49113  0.11687  0.05640  1.0000
  C   C16       1.0  0.66431  0.38316  0.44354  1.0000
  C   C17       1.0  0.08370  0.29885  0.80129  1.0000
  C   C18       1.0  0.18359  0.20133  0.69901  1.0000
  C   C19       1.0  0.91630  0.70115  0.19871  1.0000
  C   C20       1.0  0.81641  0.79868  0.30098  1.0000
  C   C21       1.0  0.33990  0.30044  0.80059  1.0000
  C   C22       1.0  0.44063  0.19970  0.69979  1.0000
  C   C23       1.0  0.66010  0.69955  0.19941  1.0000
  C   C24       1.0  0.55937  0.80030  0.30021  1.0000
  N   N1        1.0  0.16164  0.34885  0.85182  1.0000
  N   N2        1.0  0.36203  0.15134  0.64848  1.0000
  N   N3        1.0  0.83836  0.65115  0.14818  1.0000
  N   N4        1.0  0.63797  0.84866  0.35152  1.0000
  O   O1        1.0  0.73257  0.49377  0.98441  1.0000
  O   O2        1.0  0.21079  0.00639  0.51555  1.0000
  O   O3        1.0  0.26743  0.50623  0.01559  1.0000
  O   O4        1.0  0.78921  0.99361  0.48445  1.0000
  O   O5        1.0  0.00673  0.68821  0.85953  1.0000
  O   O6        1.0  0.55433  0.81185  0.64055  1.0000
  O   O7        1.0  0.99327  0.31178  0.14047  1.0000
  O   O8        1.0  0.44568  0.18815  0.35945  1.0000
  O   O9        1.0  0.92817  0.91636  0.67890  1.0000
  O   O10       1.0  0.52341  0.58374  0.82119  1.0000
  O   O11       1.0  0.07183  0.08364  0.32110  1.0000
  O   O12       1.0  0.47659  0.41626  0.17881  1.0000
  O   O13       1.0  0.82597  0.68783  0.73546  1.0000
  O   O14       1.0  0.24922  0.81207  0.76455  1.0000
  O   O15       1.0  0.17403  0.31217  0.26454  1.0000
  O   O16       1.0  0.75078  0.18793  0.23545  1.0000
