data_image0
_chemical_formula_structural       CuP2H18C18N2O6
_chemical_formula_sum              "Cu1 P2 H18 C18 N2 O6"
_cell_length_a       7.59388
_cell_length_b       8.31992
_cell_length_c       8.61808
_cell_angle_alpha    94.8441
_cell_angle_beta     110.105
_cell_angle_gamma    92.5865

_space_group_name_H-M_alt    "P 1"
_space_group_IT_number       1

loop_
  _space_group_symop_operation_xyz
  'x, y, z'

loop_
  _atom_site_type_symbol
  _atom_site_label
  _atom_site_symmetry_multiplicity
  _atom_site_fract_x
  _atom_site_fract_y
  _atom_site_fract_z
  _atom_site_occupancy
  Cu  Cu1       1.0  0.50000  1.00000  0.00000  1.0000
  P   P1        1.0  0.46112  0.13978  0.31592  1.0000
  P   P2        1.0  0.53889  0.86021  0.68408  1.0000
  H   H1        1.0  0.31054  0.00666  0.45080  1.0000
  H   H2        1.0  0.68946  0.99334  0.54919  1.0000
  H   H3        1.0  0.53784  0.68482  0.13939  1.0000
  H   H4        1.0  0.46215  0.31518  0.86061  1.0000
  H   H5        1.0  0.32306  0.44946  0.12883  1.0000
  H   H6        1.0  0.67694  0.55054  0.87118  1.0000
  H   H7        1.0  0.85970  0.73734  0.89670  1.0000
  H   H8        1.0  0.14029  0.26266  0.10331  1.0000
  H   H9        1.0  0.09373  0.95552  0.90836  1.0000
  H   H10       1.0  0.90626  0.04447  0.09163  1.0000
  H   H11       1.0  0.23506  0.30481  0.47893  1.0000
  H   H12       1.0  0.76494  0.69519  0.52107  1.0000
  H   H13       1.0  0.88617  0.51182  0.37309  1.0000
  H   H14       1.0  0.11383  0.48818  0.62690  1.0000
  H   H15       1.0  0.71831  0.36739  0.22677  1.0000
  H   H16       1.0  0.28169  0.63261  0.77322  1.0000
  H   H17       1.0  0.86240  0.30684  0.41601  1.0000
  H   H18       1.0  0.13760  0.69317  0.58399  1.0000
  C   C1        1.0  0.38609  0.69026  0.08598  1.0000
  C   C2        1.0  0.61390  0.30974  0.91401  1.0000
  C   C3        1.0  0.26361  0.55892  0.07962  1.0000
  C   C4        1.0  0.73640  0.44109  0.92038  1.0000
  C   C5        1.0  0.06836  0.56921  0.00760  1.0000
  C   C6        1.0  0.93164  0.43079  0.99241  1.0000
  C   C7        1.0  0.00793  0.71672  0.94921  1.0000
  C   C8        1.0  0.99207  0.28328  0.05080  1.0000
  C   C9        1.0  0.13876  0.84214  0.95793  1.0000
  C   C10       1.0  0.86123  0.15786  0.04208  1.0000
  C   C11       1.0  0.48758  0.34219  0.42209  1.0000
  C   C12       1.0  0.51243  0.65780  0.57792  1.0000
  C   C13       1.0  0.63955  0.45254  0.43322  1.0000
  C   C14       1.0  0.36045  0.54745  0.56678  1.0000
  C   C15       1.0  0.35161  0.39142  0.48846  1.0000
  C   C16       1.0  0.64840  0.60857  0.51155  1.0000
  C   C17       1.0  0.78568  0.40828  0.35941  1.0000
  C   C18       1.0  0.21432  0.59172  0.64059  1.0000
  N   N1        1.0  0.32494  0.82871  0.02363  1.0000
  N   N2        1.0  0.67505  0.17129  0.97637  1.0000
  O   O1        1.0  0.28190  0.05220  0.33521  1.0000
  O   O2        1.0  0.71811  0.94780  0.66478  1.0000
  O   O3        1.0  0.63806  0.05176  0.38444  1.0000
  O   O4        1.0  0.36194  0.94823  0.61554  1.0000
  O   O5        1.0  0.41035  0.16395  0.12967  1.0000
  O   O6        1.0  0.58965  0.83606  0.87033  1.0000
