data_image0
_chemical_formula_structural       Cd2P4H36C24N4O16
_chemical_formula_sum              "Cd2 P4 H36 C24 N4 O16"
_cell_length_a       8.6664
_cell_length_b       9.71056
_cell_length_c       11.6384
_cell_angle_alpha    73.1375
_cell_angle_beta     68.1593
_cell_angle_gamma    63.4656

_space_group_name_H-M_alt    "P 1"
_space_group_IT_number       1

loop_
  _space_group_symop_operation_xyz
  'x, y, z'

loop_
  _atom_site_type_symbol
  _atom_site_label
  _atom_site_symmetry_multiplicity
  _atom_site_fract_x
  _atom_site_fract_y
  _atom_site_fract_z
  _atom_site_occupancy
  Cd  Cd1       1.0  0.00000  0.50000  1.00000  1.0000
  Cd  Cd2       1.0  0.50000  1.00000  0.50000  1.0000
  P   P1        1.0  0.85356  0.82303  0.79147  1.0000
  P   P2        1.0  0.46806  0.67703  0.70851  1.0000
  P   P3        1.0  0.14644  0.17697  0.20853  1.0000
  P   P4        1.0  0.53194  0.32297  0.29149  1.0000
  H   H1        1.0  0.68548  0.53889  0.91347  1.0000
  H   H2        1.0  0.13802  0.96129  0.58655  1.0000
  H   H3        1.0  0.31452  0.46111  0.08653  1.0000
  H   H4        1.0  0.86198  0.03871  0.41345  1.0000
  H   H5        1.0  0.64246  0.46566  0.05725  1.0000
  H   H6        1.0  0.16529  0.03451  0.44272  1.0000
  H   H7        1.0  0.35754  0.53434  0.94274  1.0000
  H   H8        1.0  0.83471  0.96550  0.55728  1.0000
  H   H9        1.0  0.72073  0.73956  0.70477  1.0000
  H   H10       1.0  0.16500  0.76050  0.79522  1.0000
  H   H11       1.0  0.27927  0.26044  0.29523  1.0000
  H   H12       1.0  0.83500  0.23950  0.20478  1.0000
  H   H13       1.0  0.78984  0.16444  0.98311  1.0000
  H   H14       1.0  0.93763  0.33525  0.51684  1.0000
  H   H15       1.0  0.21016  0.83556  0.01689  1.0000
  H   H16       1.0  0.06237  0.66474  0.48317  1.0000
  H   H17       1.0  0.84155  0.13329  0.82670  1.0000
  H   H18       1.0  0.80192  0.36640  0.67324  1.0000
  H   H19       1.0  0.15844  0.86671  0.17330  1.0000
  H   H20       1.0  0.19808  0.63359  0.32676  1.0000
  H   H21       1.0  0.93694  0.97867  0.93498  1.0000
  H   H22       1.0  0.85095  0.52094  0.56503  1.0000
  H   H23       1.0  0.06306  0.02133  0.06502  1.0000
  H   H24       1.0  0.14905  0.47906  0.43497  1.0000
  H   H25       1.0  0.49876  0.80606  0.90246  1.0000
  H   H26       1.0  0.20737  0.69417  0.59741  1.0000
  H   H27       1.0  0.50124  0.19394  0.09753  1.0000
  H   H28       1.0  0.79263  0.30583  0.40259  1.0000
  H   H29       1.0  0.94550  0.33773  0.83503  1.0000
  H   H30       1.0  0.11767  0.16311  0.66505  1.0000
  H   H31       1.0  0.05450  0.66228  0.16496  1.0000
  H   H32       1.0  0.88233  0.83689  0.33495  1.0000
  H   H33       1.0  0.42483  0.33973  0.83240  1.0000
  H   H34       1.0  0.59676  0.16022  0.66777  1.0000
  H   H35       1.0  0.57517  0.66027  0.16760  1.0000
  H   H36       1.0  0.40324  0.83978  0.33222  1.0000
  C   C1        1.0  0.81439  0.08088  0.92581  1.0000
  C   C2        1.0  0.82133  0.41888  0.57413  1.0000
  C   C3        1.0  0.18562  0.91912  0.07419  1.0000
  C   C4        1.0  0.17867  0.58111  0.42587  1.0000
  C   C5        1.0  0.65556  0.03593  0.96341  1.0000
  C   C6        1.0  0.65504  0.46401  0.53655  1.0000
  C   C7        1.0  0.34444  0.96406  0.03659  1.0000
  C   C8        1.0  0.34496  0.53599  0.46345  1.0000
  C   C9        1.0  0.65441  0.92513  0.90765  1.0000
  C   C10       1.0  0.48735  0.57494  0.59226  1.0000
  C   C11       1.0  0.34559  0.07487  0.09235  1.0000
  C   C12       1.0  0.51265  0.42506  0.40774  1.0000
  C   C13       1.0  0.49953  0.89191  0.94511  1.0000
  C   C14       1.0  0.33663  0.60820  0.55482  1.0000
  C   C15       1.0  0.50047  0.10809  0.05489  1.0000
  C   C16       1.0  0.66337  0.39180  0.44518  1.0000
  C   C17       1.0  0.09088  0.29847  0.79586  1.0000
  C   C18       1.0  0.18476  0.20217  0.70424  1.0000
  C   C19       1.0  0.90911  0.70153  0.20414  1.0000
  C   C20       1.0  0.81523  0.79783  0.29576  1.0000
  C   C21       1.0  0.35631  0.29923  0.79561  1.0000
  C   C22       1.0  0.45090  0.20095  0.70452  1.0000
  C   C23       1.0  0.64369  0.70077  0.20439  1.0000
  C   C24       1.0  0.54909  0.79905  0.29548  1.0000
  N   N1        1.0  0.17710  0.34666  0.84101  1.0000
  N   N2        1.0  0.36437  0.15373  0.65909  1.0000
  N   N3        1.0  0.82290  0.65334  0.15899  1.0000
  N   N4        1.0  0.63562  0.84627  0.34091  1.0000
  O   O1        1.0  0.73900  0.48912  0.98365  1.0000
  O   O2        1.0  0.21164  0.01123  0.51636  1.0000
  O   O3        1.0  0.26100  0.51088  0.01635  1.0000
  O   O4        1.0  0.78835  0.98877  0.48364  1.0000
  O   O5        1.0  0.00203  0.72467  0.85811  1.0000
  O   O6        1.0  0.58461  0.77545  0.64199  1.0000
  O   O7        1.0  0.99797  0.27533  0.14189  1.0000
  O   O8        1.0  0.41539  0.22455  0.35801  1.0000
  O   O9        1.0  0.90359  0.93821  0.67940  1.0000
  O   O10       1.0  0.52129  0.56183  0.82061  1.0000
  O   O11       1.0  0.09641  0.06179  0.32060  1.0000
  O   O12       1.0  0.47871  0.43817  0.17939  1.0000
  O   O13       1.0  0.81339  0.70070  0.75499  1.0000
  O   O14       1.0  0.26898  0.79931  0.74491  1.0000
  O   O15       1.0  0.18661  0.29930  0.24501  1.0000
  O   O16       1.0  0.73103  0.20069  0.25509  1.0000
