data_image0
_chemical_formula_structural       Ca2P4H22C8N2O18
_chemical_formula_sum              "Ca2 P4 H22 C8 N2 O18"
_cell_length_a       7.13406
_cell_length_b       7.25967
_cell_length_c       10.437
_cell_angle_alpha    78.725
_cell_angle_beta     80.5352
_cell_angle_gamma    89.4106

_space_group_name_H-M_alt    "P 1"
_space_group_IT_number       1

loop_
  _space_group_symop_operation_xyz
  'x, y, z'

loop_
  _atom_site_type_symbol
  _atom_site_label
  _atom_site_symmetry_multiplicity
  _atom_site_fract_x
  _atom_site_fract_y
  _atom_site_fract_z
  _atom_site_occupancy
  Ca  Ca1       1.0  0.62012  0.82905  0.74173  1.0000
  Ca  Ca2       1.0  0.37988  0.17095  0.25827  1.0000
  P   P1        1.0  0.51777  0.27670  0.88384  1.0000
  P   P2        1.0  0.48223  0.72329  0.11617  1.0000
  P   P3        1.0  0.10672  0.88573  0.79130  1.0000
  P   P4        1.0  0.89328  0.11427  0.20870  1.0000
  H   H1        1.0  0.68997  0.44503  0.70215  1.0000
  H   H2        1.0  0.31003  0.55497  0.29785  1.0000
  H   H3        1.0  0.26604  0.79617  0.95523  1.0000
  H   H4        1.0  0.73396  0.20383  0.04478  1.0000
  H   H5        1.0  0.74684  0.19894  0.56506  1.0000
  H   H6        1.0  0.25316  0.80106  0.43494  1.0000
  H   H7        1.0  0.71073  0.07447  0.46486  1.0000
  H   H8        1.0  0.28927  0.92553  0.53514  1.0000
  H   H9        1.0  0.34456  0.19379  0.69695  1.0000
  H   H10       1.0  0.65545  0.80621  0.30305  1.0000
  H   H11       1.0  0.19642  0.16335  0.94927  1.0000
  H   H12       1.0  0.80358  0.83665  0.05073  1.0000
  H   H13       1.0  0.19649  0.41165  0.89992  1.0000
  H   H14       1.0  0.80351  0.58835  0.10008  1.0000
  H   H15       1.0  0.01876  0.15989  0.64984  1.0000
  H   H16       1.0  0.98124  0.84011  0.35015  1.0000
  H   H17       1.0  0.94128  0.17712  0.81875  1.0000
  H   H18       1.0  0.05872  0.82288  0.18124  1.0000
  H   H19       1.0  0.32168  0.54405  0.67023  1.0000
  H   H20       1.0  0.67833  0.45595  0.32977  1.0000
  H   H21       1.0  0.07538  0.50437  0.67665  1.0000
  H   H22       1.0  0.92462  0.49563  0.32335  1.0000
  C   C1        1.0  0.26402  0.28329  0.87662  1.0000
  C   C2        1.0  0.73598  0.71670  0.12338  1.0000
  C   C3        1.0  0.05848  0.13666  0.74879  1.0000
  C   C4        1.0  0.94153  0.86334  0.25121  1.0000
  C   C5        1.0  0.21644  0.44700  0.65203  1.0000
  C   C6        1.0  0.78356  0.55300  0.34798  1.0000
  C   C7        1.0  0.26114  0.42968  0.50759  1.0000
  C   C8        1.0  0.73886  0.57033  0.49241  1.0000
  N   N1        1.0  0.22902  0.26084  0.74161  1.0000
  N   N2        1.0  0.77098  0.73916  0.25839  1.0000
  O   O1        1.0  0.59379  0.11378  0.82203  1.0000
  O   O2        1.0  0.40620  0.88622  0.17797  1.0000
  O   O3        1.0  0.53787  0.27274  0.02705  1.0000
  O   O4        1.0  0.46213  0.72726  0.97295  1.0000
  O   O5        1.0  0.60863  0.46777  0.79341  1.0000
  O   O6        1.0  0.39137  0.53224  0.20659  1.0000
  O   O7        1.0  0.29810  0.85836  0.70739  1.0000
  O   O8        1.0  0.70190  0.14164  0.29261  1.0000
  O   O9        1.0  0.13141  0.84237  0.94248  1.0000
  O   O10       1.0  0.86859  0.15763  0.05752  1.0000
  O   O11       1.0  0.93286  0.78376  0.77352  1.0000
  O   O12       1.0  0.06713  0.21623  0.22648  1.0000
  O   O13       1.0  0.34507  0.28750  0.47778  1.0000
  O   O14       1.0  0.65494  0.71250  0.52222  1.0000
  O   O15       1.0  0.21423  0.57040  0.42452  1.0000
  O   O16       1.0  0.78577  0.42959  0.57549  1.0000
  O   O17       1.0  0.72826  0.06714  0.55771  1.0000
  O   O18       1.0  0.27174  0.93286  0.44229  1.0000
