data_image0
_chemical_formula_structural       Ag4H22C14N6O10
_chemical_formula_sum              "Ag4 H22 C14 N6 O10"
_cell_length_a       4.80402
_cell_length_b       5.41722
_cell_length_c       20.2903
_cell_angle_alpha    89.9963
_cell_angle_beta     90.0032
_cell_angle_gamma    104.261

_space_group_name_H-M_alt    "P 1"
_space_group_IT_number       1

loop_
  _space_group_symop_operation_xyz
  'x, y, z'

loop_
  _atom_site_type_symbol
  _atom_site_label
  _atom_site_symmetry_multiplicity
  _atom_site_fract_x
  _atom_site_fract_y
  _atom_site_fract_z
  _atom_site_occupancy
  Ag  Ag1       1.0  0.79676  0.57830  0.14329  1.0000
  Ag  Ag2       1.0  0.20324  0.42170  0.64329  1.0000
  Ag  Ag3       1.0  0.47732  0.99762  0.13282  1.0000
  Ag  Ag4       1.0  0.52267  0.00238  0.63282  1.0000
  H   H1        1.0  0.07296  0.91344  0.34873  1.0000
  H   H2        1.0  0.92705  0.08656  0.84873  1.0000
  H   H3        1.0  0.74692  0.96676  0.31597  1.0000
  H   H4        1.0  0.25310  0.03325  0.81598  1.0000
  H   H5        1.0  0.98671  0.49677  0.29523  1.0000
  H   H6        1.0  0.01331  0.50325  0.79523  1.0000
  H   H7        1.0  0.43954  0.39320  0.47469  1.0000
  H   H8        1.0  0.56046  0.60680  0.97470  1.0000
  H   H9        1.0  0.42386  0.96102  0.42948  1.0000
  H   H10       1.0  0.57611  0.03897  0.92948  1.0000
  H   H11       1.0  0.72745  0.94793  0.47840  1.0000
  H   H12       1.0  0.27252  0.05206  0.97839  1.0000
  H   H13       1.0  0.45418  0.60696  0.24470  1.0000
  H   H14       1.0  0.54583  0.39305  0.74470  1.0000
  H   H15       1.0  0.53751  0.32671  0.24108  1.0000
  H   H16       1.0  0.46250  0.67330  0.74108  1.0000
  H   H17       1.0  0.99127  0.41269  0.40477  1.0000
  H   H18       1.0  0.00873  0.58730  0.90476  1.0000
  H   H19       1.0  0.28903  0.74730  0.53270  1.0000
  H   H20       1.0  0.71096  0.25270  0.03270  1.0000
  H   H21       1.0  0.17806  0.01498  0.53180  1.0000
  H   H22       1.0  0.82192  0.98503  0.03180  1.0000
  C   C1        1.0  0.08575  0.99522  0.24547  1.0000
  C   C2        1.0  0.91426  0.00479  0.74547  1.0000
  C   C3        1.0  0.92348  0.87600  0.30677  1.0000
  C   C4        1.0  0.07653  0.12400  0.80677  1.0000
  C   C5        1.0  0.80673  0.58658  0.29996  1.0000
  C   C6        1.0  0.19329  0.41343  0.79996  1.0000
  C   C7        1.0  0.63272  0.48706  0.36198  1.0000
  C   C8        1.0  0.36729  0.51295  0.86198  1.0000
  C   C9        1.0  0.63251  0.31989  0.47316  1.0000
  C   C10       1.0  0.36747  0.68010  0.97316  1.0000
  C   C11       1.0  0.53993  0.02904  0.47549  1.0000
  C   C12       1.0  0.46005  0.97095  0.97549  1.0000
  C   C13       1.0  0.81806  0.43446  0.53245  1.0000
  C   C14       1.0  0.18192  0.56553  0.03245  1.0000
  N   N1        1.0  0.62164  0.51978  0.24156  1.0000
  N   N2        1.0  0.37837  0.48023  0.74157  1.0000
  N   N3        1.0  0.77863  0.41024  0.41164  1.0000
  N   N4        1.0  0.22137  0.58975  0.91164  1.0000
  N   N5        1.0  0.35591  0.94178  0.53327  1.0000
  N   N6        1.0  0.64407  0.05822  0.03327  1.0000
  O   O1        1.0  0.00493  0.16270  0.21405  1.0000
  O   O2        1.0  0.99509  0.83732  0.71406  1.0000
  O   O3        1.0  0.30984  0.91143  0.23068  1.0000
  O   O4        1.0  0.69016  0.08856  0.73068  1.0000
  O   O5        1.0  0.37172  0.48253  0.36560  1.0000
  O   O6        1.0  0.62830  0.51749  0.86561  1.0000
  O   O7        1.0  0.75274  0.60683  0.56497  1.0000
  O   O8        1.0  0.24722  0.39313  0.06497  1.0000
  O   O9        1.0  0.03871  0.34214  0.54375  1.0000
  O   O10       1.0  0.96128  0.65786  0.04375  1.0000
