data_image0
_chemical_formula_structural       CoH20C26N4O10
_chemical_formula_sum              "Co1 H20 C26 N4 O10"
_cell_length_a       7.49838
_cell_length_b       8.70621
_cell_length_c       9.92439
_cell_angle_alpha    72.8214
_cell_angle_beta     77.9753
_cell_angle_gamma    74.9437

_space_group_name_H-M_alt    "P 1"
_space_group_IT_number       1

loop_
  _space_group_symop_operation_xyz
  'x, y, z'

loop_
  _atom_site_type_symbol
  _atom_site_label
  _atom_site_symmetry_multiplicity
  _atom_site_fract_x
  _atom_site_fract_y
  _atom_site_fract_z
  _atom_site_occupancy
  Co  Co1       1.0  0.50000  1.00000  0.50000  1.0000
  H   H1        1.0  0.08503  0.48878  0.73988  1.0000
  H   H2        1.0  0.91497  0.51122  0.26012  1.0000
  H   H3        1.0  0.16387  0.00941  0.05061  1.0000
  H   H4        1.0  0.83612  0.99060  0.94938  1.0000
  H   H5        1.0  0.33511  0.87985  0.95537  1.0000
  H   H6        1.0  0.66489  0.12015  0.04463  1.0000
  H   H7        1.0  0.31328  0.16476  0.81319  1.0000
  H   H8        1.0  0.68672  0.83525  0.18681  1.0000
  H   H9        1.0  0.34269  0.22833  0.96088  1.0000
  H   H10       1.0  0.65730  0.77167  0.03911  1.0000
  H   H11       1.0  0.13408  0.66188  0.36896  1.0000
  H   H12       1.0  0.86592  0.33812  0.63104  1.0000
  H   H13       1.0  0.78736  0.71303  0.45613  1.0000
  H   H14       1.0  0.21265  0.28696  0.54387  1.0000
  H   H15       1.0  0.75657  0.21212  0.38031  1.0000
  H   H16       1.0  0.24343  0.78787  0.61969  1.0000
  H   H17       1.0  0.09214  0.18571  0.27234  1.0000
  H   H18       1.0  0.90785  0.81429  0.72766  1.0000
  H   H19       1.0  0.74160  0.31014  0.13911  1.0000
  H   H20       1.0  0.25840  0.68986  0.86089  1.0000
  C   C1        1.0  0.31272  0.97585  0.01217  1.0000
  C   C2        1.0  0.68728  0.02415  0.98783  1.0000
  C   C3        1.0  0.37916  0.12606  0.90965  1.0000
  C   C4        1.0  0.62084  0.87394  0.09035  1.0000
  C   C5        1.0  0.13878  0.92102  0.31000  1.0000
  C   C6        1.0  0.86122  0.07898  0.68999  1.0000
  C   C7        1.0  0.05203  0.78666  0.36352  1.0000
  C   C8        1.0  0.94797  0.21335  0.63647  1.0000
  C   C9        1.0  0.86200  0.81338  0.41348  1.0000
  C   C10       1.0  0.13800  0.18662  0.58652  1.0000
  C   C11       1.0  0.84318  0.09430  0.36800  1.0000
  C   C12       1.0  0.15682  0.90570  0.63200  1.0000
  C   C13       1.0  0.03052  0.07785  0.31074  1.0000
  C   C14       1.0  0.96948  0.92216  0.68926  1.0000
  C   C15       1.0  0.41474  0.33740  0.30382  1.0000
  C   C16       1.0  0.58526  0.66260  0.69619  1.0000
  C   C17       1.0  0.44826  0.41897  0.14563  1.0000
  C   C18       1.0  0.55174  0.58103  0.85438  1.0000
  C   C19       1.0  0.63294  0.39382  0.07918  1.0000
  C   C20       1.0  0.36706  0.60618  0.92082  1.0000
  C   C21       1.0  0.68729  0.47215  0.93670  1.0000
  C   C22       1.0  0.31272  0.52785  0.06330  1.0000
  C   C23       1.0  0.89008  0.42810  0.88552  1.0000
  C   C24       1.0  0.10993  0.57189  0.11448  1.0000
  C   C25       1.0  0.34699  0.89039  0.27086  1.0000
  C   C26       1.0  0.65301  0.10962  0.72914  1.0000
  N   N1        1.0  0.75853  0.96506  0.41798  1.0000
  N   N2        1.0  0.24147  0.03493  0.58202  1.0000
  N   N3        1.0  0.41931  0.91184  0.13170  1.0000
  N   N4        1.0  0.58069  0.08816  0.86829  1.0000
  O   O1        1.0  0.45122  0.17831  0.33002  1.0000
  O   O2        1.0  0.54878  0.82168  0.66999  1.0000
  O   O3        1.0  0.36869  0.42678  0.38787  1.0000
  O   O4        1.0  0.63131  0.57322  0.61213  1.0000
  O   O5        1.0  0.99534  0.30691  0.94764  1.0000
  O   O6        1.0  0.00466  0.69309  0.05235  1.0000
  O   O7        1.0  0.95186  0.53408  0.76460  1.0000
  O   O8        1.0  0.04815  0.46591  0.23541  1.0000
  O   O9        1.0  0.44590  0.84058  0.36881  1.0000
  O   O10       1.0  0.55410  0.15942  0.63118  1.0000
