data_image0
_chemical_formula_structural       CdH20C26N4O10
_chemical_formula_sum              "Cd1 H20 C26 N4 O10"
_cell_length_a       7.87283
_cell_length_b       8.83574
_cell_length_c       9.71078
_cell_angle_alpha    78.275
_cell_angle_beta     77.6626
_cell_angle_gamma    74.2762

_space_group_name_H-M_alt    "P 1"
_space_group_IT_number       1

loop_
  _space_group_symop_operation_xyz
  'x, y, z'

loop_
  _atom_site_type_symbol
  _atom_site_label
  _atom_site_symmetry_multiplicity
  _atom_site_fract_x
  _atom_site_fract_y
  _atom_site_fract_z
  _atom_site_occupancy
  Cd  Cd1       1.0  1.00000  0.50000  0.50000  1.0000
  H   H1        1.0  0.42959  0.99839  0.23912  1.0000
  H   H2        1.0  0.57042  0.00163  0.76088  1.0000
  H   H3        1.0  0.22542  0.82768  0.14066  1.0000
  H   H4        1.0  0.77459  0.17232  0.85933  1.0000
  H   H5        1.0  0.68667  0.48273  0.04235  1.0000
  H   H6        1.0  0.31332  0.51727  0.95765  1.0000
  H   H7        1.0  0.86901  0.38533  0.92193  1.0000
  H   H8        1.0  0.13099  0.61466  0.07808  1.0000
  H   H9        1.0  0.67246  0.15396  0.36633  1.0000
  H   H10       1.0  0.32753  0.84604  0.63367  1.0000
  H   H11       1.0  0.28496  0.69547  0.35542  1.0000
  H   H12       1.0  0.71504  0.30454  0.64458  1.0000
  H   H13       1.0  0.33717  0.20910  0.45344  1.0000
  H   H14       1.0  0.66282  0.79090  0.54657  1.0000
  H   H15       1.0  0.61150  0.66386  0.25432  1.0000
  H   H16       1.0  0.38849  0.33614  0.74569  1.0000
  H   H17       1.0  0.17272  0.28690  0.99712  1.0000
  H   H18       1.0  0.82728  0.71309  0.00289  1.0000
  H   H19       1.0  0.19228  0.32731  0.16486  1.0000
  H   H20       1.0  0.80772  0.67269  0.83515  1.0000
  C   C1        1.0  0.94350  0.92554  0.14131  1.0000
  C   C2        1.0  0.05651  0.07446  0.85868  1.0000
  C   C3        1.0  0.12420  0.90440  0.08007  1.0000
  C   C4        1.0  0.87581  0.09560  0.91992  1.0000
  C   C5        1.0  0.81684  0.02389  0.05813  1.0000
  C   C6        1.0  0.18316  0.97611  0.94186  1.0000
  C   C7        1.0  0.82996  0.46673  0.00114  1.0000
  C   C8        1.0  0.17004  0.53326  0.99886  1.0000
  C   C9        1.0  0.58894  0.27570  0.35756  1.0000
  C   C10       1.0  0.41105  0.72431  0.64244  1.0000
  C   C11       1.0  0.66541  0.40526  0.29954  1.0000
  C   C12       1.0  0.33458  0.59474  0.70046  1.0000
  C   C13       1.0  0.37519  0.57807  0.35027  1.0000
  C   C14       1.0  0.62480  0.42194  0.64973  1.0000
  C   C15       1.0  0.40525  0.30503  0.40613  1.0000
  C   C16       1.0  0.59474  0.69497  0.59388  1.0000
  C   C17       1.0  0.55654  0.55971  0.29547  1.0000
  C   C18       1.0  0.44346  0.44029  0.70453  1.0000
  C   C19       1.0  0.90091  0.84109  0.29273  1.0000
  C   C20       1.0  0.09910  0.15891  0.70726  1.0000
  C   C21       1.0  0.86482  0.37414  0.25641  1.0000
  C   C22       1.0  0.13517  0.62586  0.74360  1.0000
  C   C23       1.0  0.61923  0.06231  0.10549  1.0000
  C   C24       1.0  0.38078  0.93769  0.89451  1.0000
  C   C25       1.0  0.12712  0.37423  0.07118  1.0000
  C   C26       1.0  0.87288  0.62577  0.92883  1.0000
  N   N1        1.0  0.30066  0.45374  0.40288  1.0000
  N   N2        1.0  0.69934  0.54626  0.59712  1.0000
  N   N3        1.0  0.93369  0.39730  0.11663  1.0000
  N   N4        1.0  0.06631  0.60269  0.88337  1.0000
  O   O1        1.0  0.83104  0.92089  0.39107  1.0000
  O   O2        1.0  0.16898  0.07912  0.60891  1.0000
  O   O3        1.0  0.95168  0.68846  0.30145  1.0000
  O   O4        1.0  0.04832  0.31154  0.69855  1.0000
  O   O5        1.0  0.95968  0.32318  0.35251  1.0000
  O   O6        1.0  0.04031  0.67682  0.64750  1.0000
  O   O7        1.0  0.51711  0.17872  0.05008  1.0000
  O   O8        1.0  0.48290  0.82129  0.94992  1.0000
  O   O9        1.0  0.55930  0.95675  0.21470  1.0000
  O   O10       1.0  0.44071  0.04326  0.78530  1.0000
