data_image0
_chemical_formula_structural       CuH12C16N10O4
_chemical_formula_sum              "Cu1 H12 C16 N10 O4"
_cell_length_a       6.74411
_cell_length_b       8.55325
_cell_length_c       8.59858
_cell_angle_alpha    93.0634
_cell_angle_beta     108.947
_cell_angle_gamma    104.26

_space_group_name_H-M_alt    "P 1"
_space_group_IT_number       1

loop_
  _space_group_symop_operation_xyz
  'x, y, z'

loop_
  _atom_site_type_symbol
  _atom_site_label
  _atom_site_symmetry_multiplicity
  _atom_site_fract_x
  _atom_site_fract_y
  _atom_site_fract_z
  _atom_site_occupancy
  Cu  Cu1       1.0  0.00000  1.00000  0.00000  1.0000
  H   H1        1.0  0.94406  0.49465  0.31218  1.0000
  H   H2        1.0  0.05594  0.50535  0.68781  1.0000
  H   H3        1.0  0.79214  0.49933  0.10094  1.0000
  H   H4        1.0  0.20786  0.50066  0.89906  1.0000
  H   H5        1.0  0.86250  0.07130  0.65727  1.0000
  H   H6        1.0  0.13750  0.92870  0.34274  1.0000
  H   H7        1.0  0.04345  0.19666  0.46439  1.0000
  H   H8        1.0  0.95654  0.80333  0.53561  1.0000
  H   H9        1.0  0.44939  0.33513  0.57981  1.0000
  H   H10       1.0  0.55060  0.66487  0.42019  1.0000
  H   H11       1.0  0.65081  0.34342  0.87540  1.0000
  H   H12       1.0  0.34919  0.65658  0.12459  1.0000
  C   C1        1.0  0.84403  0.41907  0.19213  1.0000
  C   C2        1.0  0.15597  0.58093  0.80786  1.0000
  C   C3        1.0  0.98450  0.32711  0.13328  1.0000
  C   C4        1.0  0.01551  0.67289  0.86672  1.0000
  C   C5        1.0  0.36445  0.21202  0.92688  1.0000
  C   C6        1.0  0.63555  0.78798  0.07312  1.0000
  C   C7        1.0  0.03708  0.13291  0.70140  1.0000
  C   C8        1.0  0.96292  0.86708  0.29860  1.0000
  C   C9        1.0  0.13958  0.20305  0.59463  1.0000
  C   C10       1.0  0.86042  0.79695  0.40538  1.0000
  C   C11       1.0  0.36260  0.27942  0.65855  1.0000
  C   C12       1.0  0.63740  0.72058  0.34145  1.0000
  C   C13       1.0  0.47693  0.28342  0.82659  1.0000
  C   C14       1.0  0.52307  0.71658  0.17341  1.0000
  C   C15       1.0  0.46567  0.21255  0.10520  1.0000
  C   C16       1.0  0.53434  0.78745  0.89480  1.0000
  N   N1        1.0  0.14647  0.13702  0.86307  1.0000
  N   N2        1.0  0.85353  0.86298  0.13693  1.0000
  N   N3        1.0  0.36733  0.11645  0.19167  1.0000
  N   N4        1.0  0.63267  0.88355  0.80833  1.0000
  N   N5        1.0  0.49846  0.15601  0.35237  1.0000
  N   N6        1.0  0.50154  0.84399  0.64763  1.0000
  N   N7        1.0  0.67365  0.27206  0.36868  1.0000
  N   N8        1.0  0.32635  0.72794  0.63131  1.0000
  N   N9        1.0  0.65649  0.31005  0.21446  1.0000
  N   N10       1.0  0.34352  0.68995  0.78554  1.0000
  O   O1        1.0  0.16662  0.40997  0.13835  1.0000
  O   O2        1.0  0.83338  0.59003  0.86165  1.0000
  O   O3        1.0  0.89122  0.17436  0.08413  1.0000
  O   O4        1.0  0.10879  0.82564  0.91588  1.0000
