data_image0
_chemical_formula_structural       Zn4H8C8N12Cl4
_chemical_formula_sum              "Zn4 H8 C8 N12 Cl4"
_cell_length_a       6.06067
_cell_length_b       8.77976
_cell_length_c       9.81905
_cell_angle_alpha    89.9994
_cell_angle_beta     90.0008
_cell_angle_gamma    98.7928

_space_group_name_H-M_alt    "P 1"
_space_group_IT_number       1

loop_
  _space_group_symop_operation_xyz
  'x, y, z'

loop_
  _atom_site_type_symbol
  _atom_site_label
  _atom_site_symmetry_multiplicity
  _atom_site_fract_x
  _atom_site_fract_y
  _atom_site_fract_z
  _atom_site_occupancy
  Zn  Zn1       1.0  0.45402  0.18682  0.57737  1.0000
  Zn  Zn2       1.0  0.04598  0.31318  0.07737  1.0000
  Zn  Zn3       1.0  0.54598  0.81318  0.42263  1.0000
  Zn  Zn4       1.0  0.95402  0.68682  0.92263  1.0000
  H   H1        1.0  0.84042  0.97153  0.17531  1.0000
  H   H2        1.0  0.65957  0.52847  0.67530  1.0000
  H   H3        1.0  0.15958  0.02847  0.82469  1.0000
  H   H4        1.0  0.34043  0.47153  0.32470  1.0000
  H   H5        1.0  0.74733  0.39670  0.34702  1.0000
  H   H6        1.0  0.75267  0.10330  0.84701  1.0000
  H   H7        1.0  0.25268  0.60330  0.65298  1.0000
  H   H8        1.0  0.24732  0.89670  0.15299  1.0000
  C   C1        1.0  0.79098  0.05804  0.24296  1.0000
  C   C2        1.0  0.70902  0.44196  0.74296  1.0000
  C   C3        1.0  0.20903  0.94196  0.75704  1.0000
  C   C4        1.0  0.29098  0.55804  0.25704  1.0000
  C   C5        1.0  0.73835  0.27379  0.32752  1.0000
  C   C6        1.0  0.76165  0.22621  0.82752  1.0000
  C   C7        1.0  0.26166  0.72620  0.67248  1.0000
  C   C8        1.0  0.23834  0.77379  0.17248  1.0000
  N   N1        1.0  0.62746  0.16438  0.40602  1.0000
  N   N2        1.0  0.87253  0.33562  0.90601  1.0000
  N   N3        1.0  0.37254  0.83562  0.59398  1.0000
  N   N4        1.0  0.12746  0.66438  0.09399  1.0000
  N   N5        1.0  0.66170  0.02560  0.35174  1.0000
  N   N6        1.0  0.83830  0.47440  0.85173  1.0000
  N   N7        1.0  0.33831  0.97440  0.64827  1.0000
  N   N8        1.0  0.16170  0.52560  0.14827  1.0000
  N   N9        1.0  0.84266  0.21178  0.22433  1.0000
  N   N10       1.0  0.65734  0.28823  0.72433  1.0000
  N   N11       1.0  0.15735  0.78822  0.77567  1.0000
  N   N12       1.0  0.34265  0.71177  0.27567  1.0000
  Cl  Cl1       1.0  0.18780  0.33314  0.55009  1.0000
  Cl  Cl2       1.0  0.31219  0.16685  0.05009  1.0000
  Cl  Cl3       1.0  0.81219  0.66685  0.44991  1.0000
  Cl  Cl4       1.0  0.68781  0.83315  0.94991  1.0000
