data_image0
_chemical_formula_structural       Cd2H36C30N4O12
_chemical_formula_sum              "Cd2 H36 C30 N4 O12"
_cell_length_a       8.94079
_cell_length_b       10.1362
_cell_length_c       10.4704
_cell_angle_alpha    68.2198
_cell_angle_beta     69.7758
_cell_angle_gamma    78.005

_space_group_name_H-M_alt    "P 1"
_space_group_IT_number       1

loop_
  _space_group_symop_operation_xyz
  'x, y, z'

loop_
  _atom_site_type_symbol
  _atom_site_label
  _atom_site_symmetry_multiplicity
  _atom_site_fract_x
  _atom_site_fract_y
  _atom_site_fract_z
  _atom_site_occupancy
  Cd  Cd1       1.0  0.77336  0.69753  0.34588  1.0000
  Cd  Cd2       1.0  0.22664  0.30247  0.65412  1.0000
  H   H1        1.0  0.06275  0.91685  0.74210  1.0000
  H   H2        1.0  0.93725  0.08315  0.25790  1.0000
  H   H3        1.0  0.28997  0.91133  0.83691  1.0000
  H   H4        1.0  0.71003  0.08867  0.16309  1.0000
  H   H5        1.0  0.56115  0.99569  0.72224  1.0000
  H   H6        1.0  0.43885  0.00431  0.27776  1.0000
  H   H7        1.0  0.75489  0.90503  0.52674  1.0000
  H   H8        1.0  0.24511  0.09497  0.47326  1.0000
  H   H9        1.0  0.42308  0.65380  0.55906  1.0000
  H   H10       1.0  0.57692  0.34620  0.44094  1.0000
  H   H11       1.0  0.17486  0.63720  0.72272  1.0000
  H   H12       1.0  0.82514  0.36280  0.27728  1.0000
  H   H13       1.0  0.35418  0.49198  0.90424  1.0000
  H   H14       1.0  0.64582  0.50802  0.09576  1.0000
  H   H15       1.0  0.30200  0.36559  0.17125  1.0000
  H   H16       1.0  0.69801  0.63441  0.82875  1.0000
  H   H17       1.0  0.06232  0.45057  0.34008  1.0000
  H   H18       1.0  0.93768  0.54943  0.65992  1.0000
  H   H19       1.0  0.92362  0.76706  0.00300  1.0000
  H   H20       1.0  0.07638  0.23294  0.99700  1.0000
  H   H21       1.0  0.16919  0.99820  0.30574  1.0000
  H   H22       1.0  0.83081  0.00180  0.69427  1.0000
  H   H23       1.0  0.26651  0.82049  0.35766  1.0000
  H   H24       1.0  0.73349  0.17951  0.64234  1.0000
  H   H25       1.0  0.11955  0.88351  0.49002  1.0000
  H   H26       1.0  0.88044  0.11649  0.50998  1.0000
  H   H27       1.0  0.36514  0.70715  0.12421  1.0000
  H   H28       1.0  0.63486  0.29285  0.87579  1.0000
  H   H29       1.0  0.53641  0.77938  0.98062  1.0000
  H   H30       1.0  0.46358  0.22062  0.01938  1.0000
  H   H31       1.0  0.39693  0.89223  0.06779  1.0000
  H   H32       1.0  0.60307  0.10777  0.93221  1.0000
  H   H33       1.0  0.64423  0.43574  0.58383  1.0000
  H   H34       1.0  0.35576  0.56426  0.41617  1.0000
  H   H35       1.0  0.83684  0.40595  0.53518  1.0000
  H   H36       1.0  0.16316  0.59405  0.46482  1.0000
  C   C1        1.0  0.33510  0.77467  0.70657  1.0000
  C   C2        1.0  0.66490  0.22533  0.29343  1.0000
  C   C3        1.0  0.37551  0.87176  0.75283  1.0000
  C   C4        1.0  0.62448  0.12825  0.24717  1.0000
  C   C5        1.0  0.52768  0.91931  0.68884  1.0000
  C   C6        1.0  0.47232  0.08069  0.31116  1.0000
  C   C7        1.0  0.63536  0.86923  0.58060  1.0000
  C   C8        1.0  0.36464  0.13077  0.41940  1.0000
  C   C9        1.0  0.45023  0.72979  0.59754  1.0000
  C   C10       1.0  0.54976  0.27021  0.40246  1.0000
  C   C11       1.0  0.17196  0.71697  0.77222  1.0000
  C   C12       1.0  0.82804  0.28303  0.22778  1.0000
  C   C13       1.0  0.14319  0.64002  0.93288  1.0000
  C   C14       1.0  0.85681  0.35998  0.06712  1.0000
  C   C15       1.0  0.25013  0.52550  0.98188  1.0000
  C   C16       1.0  0.74987  0.47450  0.01812  1.0000
  C   C17       1.0  0.22203  0.45559  0.12903  1.0000
  C   C18       1.0  0.77797  0.54441  0.87097  1.0000
  C   C19       1.0  0.08786  0.50235  0.22406  1.0000
  C   C20       1.0  0.91214  0.49765  0.77594  1.0000
  C   C21       1.0  0.01131  0.67941  0.03510  1.0000
  C   C22       1.0  0.98869  0.32059  0.96490  1.0000
  C   C23       1.0  0.02419  0.82796  0.35902  1.0000
  C   C24       1.0  0.97581  0.17204  0.64098  1.0000
  C   C25       1.0  0.15368  0.88805  0.37685  1.0000
  C   C26       1.0  0.84632  0.11195  0.62315  1.0000
  C   C27       1.0  0.55345  0.74839  0.18812  1.0000
  C   C28       1.0  0.44655  0.25161  0.81188  1.0000
  C   C29       1.0  0.45503  0.78287  0.08577  1.0000
  C   C30       1.0  0.54497  0.21713  0.91423  1.0000
  N   N1        1.0  0.59712  0.77634  0.53518  1.0000
  N   N2        1.0  0.40288  0.22366  0.46482  1.0000
  N   N3        1.0  0.98444  0.61190  0.17766  1.0000
  N   N4        1.0  0.01556  0.38809  0.82234  1.0000
  O   O1        1.0  0.04692  0.82284  0.73935  1.0000
  O   O2        1.0  0.95308  0.17715  0.26065  1.0000
  O   O3        1.0  0.00669  0.69459  0.42218  1.0000
  O   O4        1.0  0.99331  0.30541  0.57781  1.0000
  O   O5        1.0  0.93128  0.90920  0.28692  1.0000
  O   O6        1.0  0.06872  0.09080  0.71308  1.0000
  O   O7        1.0  0.65908  0.83171  0.15741  1.0000
  O   O8        1.0  0.34092  0.16829  0.84259  1.0000
  O   O9        1.0  0.53157  0.63683  0.29973  1.0000
  O   O10       1.0  0.46842  0.36317  0.70027  1.0000
  O   O11       1.0  0.74326  0.46477  0.50321  1.0000
  O   O12       1.0  0.25674  0.53523  0.49679  1.0000
