data_image0
_chemical_formula_structural       ZnH24C26N12O6
_chemical_formula_sum              "Zn1 H24 C26 N12 O6"
_cell_length_a       7.23977
_cell_length_b       9.05654
_cell_length_c       11.5926
_cell_angle_alpha    77.8498
_cell_angle_beta     77.6238
_cell_angle_gamma    84.4811

_space_group_name_H-M_alt    "P 1"
_space_group_IT_number       1

loop_
  _space_group_symop_operation_xyz
  'x, y, z'

loop_
  _atom_site_type_symbol
  _atom_site_label
  _atom_site_symmetry_multiplicity
  _atom_site_fract_x
  _atom_site_fract_y
  _atom_site_fract_z
  _atom_site_occupancy
  Zn  Zn1       1.0  0.00000  0.50000  0.00000  1.0000
  H   H1        1.0  0.46918  0.12878  0.14632  1.0000
  H   H2        1.0  0.53083  0.87121  0.85368  1.0000
  H   H3        1.0  0.68533  0.02989  0.09282  1.0000
  H   H4        1.0  0.31467  0.97011  0.90718  1.0000
  H   H5        1.0  0.48095  0.36035  0.49120  1.0000
  H   H6        1.0  0.51904  0.63965  0.50880  1.0000
  H   H7        1.0  0.44127  0.43335  0.69495  1.0000
  H   H8        1.0  0.55872  0.56664  0.30506  1.0000
  H   H9        1.0  0.59273  0.26683  0.85086  1.0000
  H   H10       1.0  0.40727  0.73317  0.14913  1.0000
  H   H11       1.0  0.82166  0.97082  0.62327  1.0000
  H   H12       1.0  0.17834  0.02919  0.37672  1.0000
  H   H13       1.0  0.90955  0.72837  0.77223  1.0000
  H   H14       1.0  0.09045  0.27164  0.22778  1.0000
  H   H15       1.0  0.90631  0.73889  0.55820  1.0000
  H   H16       1.0  0.09369  0.26112  0.44180  1.0000
  H   H17       1.0  0.08064  0.26200  0.61554  1.0000
  H   H18       1.0  0.91935  0.73801  0.38446  1.0000
  H   H19       1.0  0.06900  0.27156  0.82618  1.0000
  H   H20       1.0  0.93099  0.72844  0.17382  1.0000
  H   H21       1.0  0.20661  0.24697  0.02397  1.0000
  H   H22       1.0  0.79341  0.75303  0.97603  1.0000
  H   H23       1.0  0.37718  0.35812  0.99617  1.0000
  H   H24       1.0  0.62283  0.64188  0.00382  1.0000
  C   C1        1.0  0.70618  0.27359  0.06122  1.0000
  C   C2        1.0  0.29381  0.72641  0.93877  1.0000
  C   C3        1.0  0.62329  0.12470  0.13637  1.0000
  C   C4        1.0  0.37672  0.87530  0.86363  1.0000
  C   C5        1.0  0.68460  0.11049  0.42796  1.0000
  C   C6        1.0  0.31540  0.88951  0.57204  1.0000
  C   C7        1.0  0.65586  0.16002  0.54246  1.0000
  C   C8        1.0  0.34414  0.83997  0.45754  1.0000
  C   C9        1.0  0.54690  0.29230  0.56250  1.0000
  C   C10       1.0  0.45309  0.70769  0.43751  1.0000
  C   C11       1.0  0.52430  0.33191  0.67432  1.0000
  C   C12       1.0  0.47570  0.66808  0.32569  1.0000
  C   C13       1.0  0.60809  0.23735  0.76287  1.0000
  C   C14       1.0  0.39191  0.76264  0.23714  1.0000
  C   C15       1.0  0.73524  0.07343  0.63712  1.0000
  C   C16       1.0  0.26477  0.92657  0.36288  1.0000
  C   C17       1.0  0.94424  0.62664  0.73400  1.0000
  C   C18       1.0  0.05576  0.37337  0.26600  1.0000
  C   C19       1.0  0.94473  0.63183  0.61319  1.0000
  C   C20       1.0  0.05526  0.36817  0.38682  1.0000
  C   C21       1.0  0.99639  0.50042  0.56444  1.0000
  C   C22       1.0  0.00360  0.49959  0.43557  1.0000
  C   C23       1.0  0.04101  0.36931  0.64432  1.0000
  C   C24       1.0  0.95898  0.63070  0.35568  1.0000
  C   C25       1.0  0.03454  0.37369  0.76437  1.0000
  C   C26       1.0  0.96545  0.62632  0.23563  1.0000
  N   N1        1.0  0.60210  0.17890  0.33590  1.0000
  N   N2        1.0  0.39790  0.82110  0.66410  1.0000
  N   N3        1.0  0.66871  0.09247  0.25487  1.0000
  N   N4        1.0  0.33130  0.90753  0.74513  1.0000
  N   N5        1.0  0.78610  0.97804  0.29093  1.0000
  N   N6        1.0  0.21391  0.02196  0.70907  1.0000
  N   N7        1.0  0.79720  0.98734  0.40120  1.0000
  N   N8        1.0  0.20281  0.01266  0.59880  1.0000
  N   N9        1.0  0.71124  0.10923  0.74579  1.0000
  N   N10       1.0  0.28876  0.89077  0.25421  1.0000
  N   N11       1.0  0.98875  0.50016  0.80979  1.0000
  N   N12       1.0  0.01124  0.49985  0.19021  1.0000
  O   O1        1.0  0.87581  0.29213  0.06759  1.0000
  O   O2        1.0  0.12421  0.70787  0.93240  1.0000
  O   O3        1.0  0.60411  0.36146  0.99944  1.0000
  O   O4        1.0  0.39591  0.63852  0.00056  1.0000
  O   O5        1.0  0.24927  0.34525  0.97947  1.0000
  O   O6        1.0  0.75073  0.65475  0.02053  1.0000
