data_image0
_chemical_formula_structural       Cd2H18C16N2O14
_chemical_formula_sum              "Cd2 H18 C16 N2 O14"
_cell_length_a       5.59517
_cell_length_b       6.52057
_cell_length_c       14.4495
_cell_angle_alpha    93.612
_cell_angle_beta     97.8821
_cell_angle_gamma    103.914

_space_group_name_H-M_alt    "P 1"
_space_group_IT_number       1

loop_
  _space_group_symop_operation_xyz
  'x, y, z'

loop_
  _atom_site_type_symbol
  _atom_site_label
  _atom_site_symmetry_multiplicity
  _atom_site_fract_x
  _atom_site_fract_y
  _atom_site_fract_z
  _atom_site_occupancy
  Cd  Cd1       1.0  0.46664  0.74014  0.34859  1.0000
  Cd  Cd2       1.0  0.53336  0.25986  0.65141  1.0000
  H   H1        1.0  0.11524  0.05678  0.17461  1.0000
  H   H2        1.0  0.88476  0.94321  0.82539  1.0000
  H   H3        1.0  0.51315  0.27177  0.95086  1.0000
  H   H4        1.0  0.48684  0.72823  0.04914  1.0000
  H   H5        1.0  0.89514  0.44618  0.06948  1.0000
  H   H6        1.0  0.10486  0.55382  0.93052  1.0000
  H   H7        1.0  0.29005  0.62183  0.51961  1.0000
  H   H8        1.0  0.70995  0.37817  0.48039  1.0000
  H   H9        1.0  0.10974  0.50770  0.42659  1.0000
  H   H10       1.0  0.89026  0.49231  0.57341  1.0000
  H   H11       1.0  0.86575  0.02956  0.28985  1.0000
  H   H12       1.0  0.13425  0.97043  0.71015  1.0000
  H   H13       1.0  0.90392  0.80077  0.25748  1.0000
  H   H14       1.0  0.09608  0.19923  0.74252  1.0000
  H   H15       1.0  0.72324  0.87214  0.54241  1.0000
  H   H16       1.0  0.27676  0.12787  0.45759  1.0000
  H   H17       1.0  0.92443  0.80691  0.48366  1.0000
  H   H18       1.0  0.07557  0.19310  0.51634  1.0000
  C   C1        1.0  0.49601  0.24009  0.21833  1.0000
  C   C2        1.0  0.50398  0.75991  0.78167  1.0000
  C   C3        1.0  0.28753  0.14174  0.15291  1.0000
  C   C4        1.0  0.71247  0.85826  0.84709  1.0000
  C   C5        1.0  0.29506  0.15432  0.05651  1.0000
  C   C6        1.0  0.70493  0.84568  0.94349  1.0000
  C   C7        1.0  0.51264  0.26565  0.02606  1.0000
  C   C8        1.0  0.48735  0.73435  0.97394  1.0000
  C   C9        1.0  0.72295  0.36173  0.09170  1.0000
  C   C10       1.0  0.27705  0.63827  0.90830  1.0000
  C   C11       1.0  0.71746  0.34872  0.18755  1.0000
  C   C12       1.0  0.28254  0.65128  0.81245  1.0000
  C   C13       1.0  0.95231  0.42960  0.25692  1.0000
  C   C14       1.0  0.04768  0.57040  0.74308  1.0000
  C   C15       1.0  0.48119  0.24168  0.32133  1.0000
  C   C16       1.0  0.51882  0.75832  0.67867  1.0000
  N   N1        1.0  0.09047  0.06155  0.98561  1.0000
  N   N2        1.0  0.90953  0.93844  0.01439  1.0000
  O   O1        1.0  0.38158  0.07122  0.35459  1.0000
  O   O2        1.0  0.61845  0.92878  0.64542  1.0000
  O   O3        1.0  0.56701  0.41817  0.37240  1.0000
  O   O4        1.0  0.43299  0.58184  0.62760  1.0000
  O   O5        1.0  0.99975  0.31069  0.31921  1.0000
  O   O6        1.0  0.00026  0.68931  0.68079  1.0000
  O   O7        1.0  0.09207  0.61307  0.24796  1.0000
  O   O8        1.0  0.90793  0.38693  0.75203  1.0000
  O   O9        1.0  0.19195  0.64937  0.46036  1.0000
  O   O10       1.0  0.80805  0.35063  0.53964  1.0000
  O   O11       1.0  0.77688  0.88148  0.26388  1.0000
  O   O12       1.0  0.22313  0.11852  0.73612  1.0000
  O   O13       1.0  0.76707  0.85018  0.47859  1.0000
  O   O14       1.0  0.23292  0.14981  0.52141  1.0000
