data_image0
_chemical_formula_structural       Cu2H22C34S2N8O10
_chemical_formula_sum              "Cu2 H22 C34 S2 N8 O10"
_cell_length_a       8.84739
_cell_length_b       10.5537
_cell_length_c       10.8551
_cell_angle_alpha    78.5813
_cell_angle_beta     75.3608
_cell_angle_gamma    67.2611

_space_group_name_H-M_alt    "P 1"
_space_group_IT_number       1

loop_
  _space_group_symop_operation_xyz
  'x, y, z'

loop_
  _atom_site_type_symbol
  _atom_site_label
  _atom_site_symmetry_multiplicity
  _atom_site_fract_x
  _atom_site_fract_y
  _atom_site_fract_z
  _atom_site_occupancy
  Cu  Cu1       1.0  0.49999  0.50000  0.00001  1.0000
  Cu  Cu2       1.0  0.50000  0.00000  1.00000  1.0000
  H   H1        1.0  0.21544  0.43739  0.21423  1.0000
  H   H2        1.0  0.78460  0.56263  0.78576  1.0000
  H   H3        1.0  0.34787  0.31973  0.12786  1.0000
  H   H4        1.0  0.65215  0.68029  0.87213  1.0000
  H   H5        1.0  0.40543  0.63614  0.23969  1.0000
  H   H6        1.0  0.59456  0.36385  0.76031  1.0000
  H   H7        1.0  0.53135  0.60432  0.43141  1.0000
  H   H8        1.0  0.46863  0.39567  0.56860  1.0000
  H   H9        1.0  0.97787  0.30555  0.23969  1.0000
  H   H10       1.0  0.02212  0.69446  0.76032  1.0000
  H   H11       1.0  0.83549  0.35515  0.05566  1.0000
  H   H12       1.0  0.16450  0.64485  0.94435  1.0000
  H   H13       1.0  0.97456  0.39208  0.87299  1.0000
  H   H14       1.0  0.02544  0.60792  0.12702  1.0000
  H   H15       1.0  0.18557  0.26657  0.01221  1.0000
  H   H16       1.0  0.81443  0.73342  0.98780  1.0000
  H   H17       1.0  0.28753  0.11449  0.58929  1.0000
  H   H18       1.0  0.71246  0.88551  0.41070  1.0000
  H   H19       1.0  0.48679  0.00370  0.73912  1.0000
  H   H20       1.0  0.51321  0.99631  0.26087  1.0000
  H   H21       1.0  0.13698  0.86989  0.81165  1.0000
  H   H22       1.0  0.86302  0.13010  0.18836  1.0000
  C   C1        1.0  0.53095  0.56329  0.24519  1.0000
  C   C2        1.0  0.46904  0.43671  0.75481  1.0000
  C   C3        1.0  0.60131  0.54457  0.35118  1.0000
  C   C4        1.0  0.39868  0.45543  0.64883  1.0000
  C   C5        1.0  0.76146  0.44528  0.35481  1.0000
  C   C6        1.0  0.23853  0.55472  0.64519  1.0000
  C   C7        1.0  0.84934  0.37742  0.24561  1.0000
  C   C8        1.0  0.15065  0.62258  0.75439  1.0000
  C   C9        1.0  0.77175  0.40497  0.14227  1.0000
  C   C10       1.0  0.22824  0.59504  0.85773  1.0000
  C   C11       1.0  0.83451  0.41471  0.46842  1.0000
  C   C12       1.0  0.16548  0.58530  0.53158  1.0000
  C   C13       1.0  0.99070  0.32977  0.63576  1.0000
  C   C14       1.0  0.00929  0.67024  0.36424  1.0000
  C   C15       1.0  0.11056  0.26070  0.72060  1.0000
  C   C16       1.0  0.88944  0.73930  0.27940  1.0000
  C   C17       1.0  0.08483  0.30483  0.84053  1.0000
  C   C18       1.0  0.91517  0.69517  0.15947  1.0000
  C   C19       1.0  0.20182  0.23494  0.91844  1.0000
  C   C20       1.0  0.79819  0.76506  0.08156  1.0000
  C   C21       1.0  0.25839  0.15108  0.68262  1.0000
  C   C22       1.0  0.74161  0.84893  0.31737  1.0000
  C   C23       1.0  0.37014  0.08809  0.76501  1.0000
  C   C24       1.0  0.62986  0.91192  0.23499  1.0000
  C   C25       1.0  0.33627  0.79608  0.98042  1.0000
  C   C26       1.0  0.66373  0.20392  0.01958  1.0000
  C   C27       1.0  0.16656  0.90868  0.99087  1.0000
  C   C28       1.0  0.83345  0.09132  0.00913  1.0000
  C   C29       1.0  0.08840  0.98484  0.09633  1.0000
  C   C30       1.0  0.91160  0.01516  0.90367  1.0000
  C   C31       1.0  0.17772  0.98594  0.19673  1.0000
  C   C32       1.0  0.82228  0.01405  0.80328  1.0000
  C   C33       1.0  0.07780  0.92637  0.89534  1.0000
  C   C34       1.0  0.92220  0.07362  0.10467  1.0000
  S   S1        1.0  0.99560  0.26309  0.50129  1.0000
  S   S2        1.0  0.00438  0.73691  0.49872  1.0000
  N   N1        1.0  0.61287  0.49163  0.14349  1.0000
  N   N2        1.0  0.38713  0.50838  0.85651  1.0000
  N   N3        1.0  0.78264  0.50108  0.55651  1.0000
  N   N4        1.0  0.21735  0.49892  0.44349  1.0000
  N   N5        1.0  0.87161  0.45309  0.65057  1.0000
  N   N6        1.0  0.12838  0.54691  0.34944  1.0000
  N   N7        1.0  0.34096  0.12698  0.88245  1.0000
  N   N8        1.0  0.65904  0.87303  0.11755  1.0000
  O   O1        1.0  0.32956  0.68173  0.04629  1.0000
  O   O2        1.0  0.67046  0.31827  0.95371  1.0000
  O   O3        1.0  0.46319  0.81351  0.90768  1.0000
  O   O4        1.0  0.53681  0.18649  0.09230  1.0000
  O   O5        1.0  0.32566  0.99332  0.15725  1.0000
  O   O6        1.0  0.67433  0.00669  0.84275  1.0000
  O   O7        1.0  0.10513  0.98732  0.31128  1.0000
  O   O8        1.0  0.89488  0.01267  0.68872  1.0000
  O   O9        1.0  0.24333  0.40191  0.13055  1.0000
  O   O10       1.0  0.75671  0.59812  0.86944  1.0000
