data_image0
_chemical_formula_structural       Er2H12C12N2O16
_chemical_formula_sum              "Er2 H12 C12 N2 O16"
_cell_length_a       6.68042
_cell_length_b       7.82973
_cell_length_c       9.14866
_cell_angle_alpha    95.8022
_cell_angle_beta     110.958
_cell_angle_gamma    94.205

_space_group_name_H-M_alt    "P 1"
_space_group_IT_number       1

loop_
  _space_group_symop_operation_xyz
  'x, y, z'

loop_
  _atom_site_type_symbol
  _atom_site_label
  _atom_site_symmetry_multiplicity
  _atom_site_fract_x
  _atom_site_fract_y
  _atom_site_fract_z
  _atom_site_occupancy
  Er  Er1       1.0  0.37519  0.76383  0.21603  1.0000
  Er  Er2       1.0  0.62481  0.23617  0.78396  1.0000
  H   H1        1.0  0.75447  0.26358  0.38113  1.0000
  H   H2        1.0  0.24553  0.73640  0.61889  1.0000
  H   H3        1.0  0.96373  0.22702  0.55577  1.0000
  H   H4        1.0  0.03628  0.77299  0.44425  1.0000
  H   H5        1.0  0.02707  0.83565  0.77260  1.0000
  H   H6        1.0  0.97292  0.16434  0.22740  1.0000
  H   H7        1.0  0.77906  0.71259  0.73872  1.0000
  H   H8        1.0  0.22092  0.28741  0.26128  1.0000
  H   H9        1.0  0.93174  0.57336  0.09433  1.0000
  H   H10       1.0  0.06827  0.42664  0.90566  1.0000
  H   H11       1.0  0.89143  0.76924  0.11772  1.0000
  H   H12       1.0  0.10857  0.23076  0.88227  1.0000
  C   C1        1.0  0.84265  0.46562  0.57049  1.0000
  C   C2        1.0  0.15735  0.53438  0.42951  1.0000
  C   C3        1.0  0.90415  0.32424  0.47686  1.0000
  C   C4        1.0  0.09585  0.67576  0.52315  1.0000
  C   C5        1.0  0.88058  0.76747  0.67959  1.0000
  C   C6        1.0  0.11942  0.23253  0.32042  1.0000
  C   C7        1.0  0.75691  0.89593  0.57620  1.0000
  C   C8        1.0  0.24309  0.10406  0.42378  1.0000
  C   C9        1.0  0.61011  0.96537  0.01663  1.0000
  C   C10       1.0  0.38989  0.03461  0.98339  1.0000
  C   C11       1.0  0.58543  0.47346  0.07415  1.0000
  C   C12       1.0  0.41457  0.52655  0.92586  1.0000
  N   N1        1.0  0.93649  0.62675  0.59029  1.0000
  N   N2        1.0  0.06351  0.37325  0.40972  1.0000
  O   O1        1.0  0.70471  0.42613  0.62983  1.0000
  O   O2        1.0  0.29526  0.57386  0.37016  1.0000
  O   O3        1.0  0.74688  0.04039  0.64628  1.0000
  O   O4        1.0  0.25311  0.95962  0.35372  1.0000
  O   O5        1.0  0.67538  0.85147  0.42804  1.0000
  O   O6        1.0  0.32463  0.14853  0.57197  1.0000
  O   O7        1.0  0.72215  0.01584  0.94055  1.0000
  O   O8        1.0  0.27787  0.98417  0.05944  1.0000
  O   O9        1.0  0.66049  0.86186  0.11931  1.0000
  O   O10       1.0  0.33951  0.13814  0.88066  1.0000
  O   O11       1.0  0.72289  0.38155  0.04927  1.0000
  O   O12       1.0  0.27713  0.61844  0.95072  1.0000
  O   O13       1.0  0.57901  0.52797  0.20641  1.0000
  O   O14       1.0  0.42099  0.47203  0.79357  1.0000
  O   O15       1.0  0.99898  0.69239  0.10597  1.0000
  O   O16       1.0  0.00102  0.30761  0.89402  1.0000
