data_image0
_chemical_formula_structural       Dy2H12C12N2O16
_chemical_formula_sum              "Dy2 H12 C12 N2 O16"
_cell_length_a       6.71755
_cell_length_b       7.85629
_cell_length_c       9.20412
_cell_angle_alpha    95.7323
_cell_angle_beta     111.168
_cell_angle_gamma    94.0707

_space_group_name_H-M_alt    "P 1"
_space_group_IT_number       1

loop_
  _space_group_symop_operation_xyz
  'x, y, z'

loop_
  _atom_site_type_symbol
  _atom_site_label
  _atom_site_symmetry_multiplicity
  _atom_site_fract_x
  _atom_site_fract_y
  _atom_site_fract_z
  _atom_site_occupancy
  Dy  Dy1       1.0  0.37365  0.76330  0.21595  1.0000
  Dy  Dy2       1.0  0.62635  0.23670  0.78405  1.0000
  H   H1        1.0  0.75494  0.26406  0.38481  1.0000
  H   H2        1.0  0.24505  0.73594  0.61518  1.0000
  H   H3        1.0  0.96616  0.22935  0.55840  1.0000
  H   H4        1.0  0.03382  0.77065  0.44160  1.0000
  H   H5        1.0  0.03353  0.83717  0.76978  1.0000
  H   H6        1.0  0.96647  0.16283  0.23023  1.0000
  H   H7        1.0  0.78874  0.71503  0.74117  1.0000
  H   H8        1.0  0.21126  0.28497  0.25884  1.0000
  H   H9        1.0  0.92876  0.57452  0.09233  1.0000
  H   H10       1.0  0.07124  0.42549  0.90767  1.0000
  H   H11       1.0  0.88852  0.76961  0.11598  1.0000
  H   H12       1.0  0.11148  0.23040  0.88402  1.0000
  C   C1        1.0  0.84510  0.46737  0.57143  1.0000
  C   C2        1.0  0.15489  0.53264  0.42856  1.0000
  C   C3        1.0  0.90481  0.32526  0.47881  1.0000
  C   C4        1.0  0.09519  0.67474  0.52119  1.0000
  C   C5        1.0  0.88604  0.76856  0.67944  1.0000
  C   C6        1.0  0.11397  0.23144  0.32057  1.0000
  C   C7        1.0  0.75978  0.89584  0.57675  1.0000
  C   C8        1.0  0.24022  0.10416  0.42325  1.0000
  C   C9        1.0  0.60953  0.96488  0.01662  1.0000
  C   C10       1.0  0.39050  0.03510  0.98339  1.0000
  C   C11       1.0  0.58567  0.47354  0.07402  1.0000
  C   C12       1.0  0.41432  0.52647  0.92597  1.0000
  N   N1        1.0  0.93905  0.62745  0.59011  1.0000
  N   N2        1.0  0.06095  0.37255  0.40990  1.0000
  O   O1        1.0  0.70882  0.42941  0.63131  1.0000
  O   O2        1.0  0.29117  0.57059  0.36868  1.0000
  O   O3        1.0  0.75019  0.03976  0.64662  1.0000
  O   O4        1.0  0.24981  0.96024  0.35337  1.0000
  O   O5        1.0  0.67588  0.85112  0.42947  1.0000
  O   O6        1.0  0.32412  0.14887  0.57054  1.0000
  O   O7        1.0  0.72100  0.01407  0.94092  1.0000
  O   O8        1.0  0.27901  0.98592  0.05909  1.0000
  O   O9        1.0  0.65976  0.86173  0.11903  1.0000
  O   O10       1.0  0.34026  0.13827  0.88097  1.0000
  O   O11       1.0  0.72397  0.38345  0.04964  1.0000
  O   O12       1.0  0.27603  0.61656  0.95035  1.0000
  O   O13       1.0  0.57869  0.52647  0.20555  1.0000
  O   O14       1.0  0.42130  0.47354  0.79445  1.0000
  O   O15       1.0  0.99559  0.69307  0.10398  1.0000
  O   O16       1.0  0.00442  0.30693  0.89602  1.0000
