data_image0
_chemical_formula_structural       Ho2H12C12N2O16
_chemical_formula_sum              "Ho2 H12 C12 N2 O16"
_cell_length_a       6.69945
_cell_length_b       7.84513
_cell_length_c       9.17331
_cell_angle_alpha    95.7771
_cell_angle_beta     111.03
_cell_angle_gamma    94.1402

_space_group_name_H-M_alt    "P 1"
_space_group_IT_number       1

loop_
  _space_group_symop_operation_xyz
  'x, y, z'

loop_
  _atom_site_type_symbol
  _atom_site_label
  _atom_site_symmetry_multiplicity
  _atom_site_fract_x
  _atom_site_fract_y
  _atom_site_fract_z
  _atom_site_occupancy
  Ho  Ho1       1.0  0.37427  0.76367  0.21595  1.0000
  Ho  Ho2       1.0  0.62573  0.23634  0.78405  1.0000
  H   H1        1.0  0.75428  0.26434  0.38282  1.0000
  H   H2        1.0  0.24572  0.73566  0.61719  1.0000
  H   H3        1.0  0.96441  0.22799  0.55665  1.0000
  H   H4        1.0  0.03558  0.77201  0.44335  1.0000
  H   H5        1.0  0.03056  0.83675  0.77111  1.0000
  H   H6        1.0  0.96943  0.16325  0.22889  1.0000
  H   H7        1.0  0.78475  0.71389  0.74069  1.0000
  H   H8        1.0  0.21524  0.28611  0.25931  1.0000
  H   H9        1.0  0.93023  0.57431  0.09340  1.0000
  H   H10       1.0  0.06977  0.42568  0.90660  1.0000
  H   H11       1.0  0.88983  0.76971  0.11698  1.0000
  H   H12       1.0  0.11017  0.23028  0.88301  1.0000
  C   C1        1.0  0.84413  0.46654  0.57124  1.0000
  C   C2        1.0  0.15586  0.53346  0.42876  1.0000
  C   C3        1.0  0.90424  0.32480  0.47767  1.0000
  C   C4        1.0  0.09576  0.67519  0.52233  1.0000
  C   C5        1.0  0.88358  0.76804  0.67978  1.0000
  C   C6        1.0  0.11641  0.23196  0.32022  1.0000
  C   C7        1.0  0.75811  0.89545  0.57655  1.0000
  C   C8        1.0  0.24189  0.10456  0.42345  1.0000
  C   C9        1.0  0.60986  0.96523  0.01669  1.0000
  C   C10       1.0  0.39014  0.03478  0.98329  1.0000
  C   C11       1.0  0.58555  0.47351  0.07407  1.0000
  C   C12       1.0  0.41446  0.52648  0.92595  1.0000
  N   N1        1.0  0.93805  0.62711  0.59049  1.0000
  N   N2        1.0  0.06195  0.37289  0.40952  1.0000
  O   O1        1.0  0.70722  0.42789  0.63107  1.0000
  O   O2        1.0  0.29278  0.57212  0.36893  1.0000
  O   O3        1.0  0.74794  0.03966  0.64626  1.0000
  O   O4        1.0  0.25206  0.96034  0.35373  1.0000
  O   O5        1.0  0.67538  0.85052  0.42884  1.0000
  O   O6        1.0  0.32462  0.14948  0.57116  1.0000
  O   O7        1.0  0.72171  0.01503  0.94083  1.0000
  O   O8        1.0  0.27829  0.98497  0.05915  1.0000
  O   O9        1.0  0.66008  0.86203  0.11933  1.0000
  O   O10       1.0  0.33993  0.13797  0.88065  1.0000
  O   O11       1.0  0.72336  0.38250  0.04932  1.0000
  O   O12       1.0  0.27664  0.61749  0.95070  1.0000
  O   O13       1.0  0.57898  0.52735  0.20602  1.0000
  O   O14       1.0  0.42103  0.47266  0.79400  1.0000
  O   O15       1.0  0.99719  0.69313  0.10501  1.0000
  O   O16       1.0  0.00281  0.30688  0.89499  1.0000
