data_image0
_chemical_formula_structural       Yb2H12C12N2O16
_chemical_formula_sum              "Yb2 H12 C12 N2 O16"
_cell_length_a       6.65201
_cell_length_b       7.80678
_cell_length_c       9.0937
_cell_angle_alpha    95.9433
_cell_angle_beta     110.697
_cell_angle_gamma    94.4927

_space_group_name_H-M_alt    "P 1"
_space_group_IT_number       1

loop_
  _space_group_symop_operation_xyz
  'x, y, z'

loop_
  _atom_site_type_symbol
  _atom_site_label
  _atom_site_symmetry_multiplicity
  _atom_site_fract_x
  _atom_site_fract_y
  _atom_site_fract_z
  _atom_site_occupancy
  Yb  Yb1       1.0  0.37635  0.76401  0.21466  1.0000
  Yb  Yb2       1.0  0.62364  0.23599  0.78535  1.0000
  H   H1        1.0  0.24220  0.74272  0.61562  1.0000
  H   H2        1.0  0.75781  0.25728  0.38438  1.0000
  H   H3        1.0  0.02996  0.77164  0.43941  1.0000
  H   H4        1.0  0.97004  0.22836  0.56059  1.0000
  H   H5        1.0  0.97730  0.16216  0.22742  1.0000
  H   H6        1.0  0.02271  0.83785  0.77258  1.0000
  H   H7        1.0  0.22541  0.28769  0.26160  1.0000
  H   H8        1.0  0.77459  0.71231  0.73840  1.0000
  H   H9        1.0  0.93397  0.57485  0.09514  1.0000
  H   H10       1.0  0.06602  0.42515  0.90486  1.0000
  H   H11       1.0  0.89424  0.77134  0.11838  1.0000
  H   H12       1.0  0.10576  0.22866  0.88162  1.0000
  C   C1        1.0  0.15724  0.53530  0.42825  1.0000
  C   C2        1.0  0.84275  0.46470  0.57175  1.0000
  C   C3        1.0  0.09304  0.67730  0.52084  1.0000
  C   C4        1.0  0.90696  0.32270  0.47916  1.0000
  C   C5        1.0  0.12338  0.23195  0.32100  1.0000
  C   C6        1.0  0.87663  0.76805  0.67900  1.0000
  C   C7        1.0  0.24739  0.10417  0.42515  1.0000
  C   C8        1.0  0.75261  0.89583  0.57485  1.0000
  C   C9        1.0  0.61085  0.96682  0.01714  1.0000
  C   C10       1.0  0.38916  0.03319  0.98286  1.0000
  C   C11       1.0  0.41414  0.52540  0.92568  1.0000
  C   C12       1.0  0.58586  0.47460  0.07431  1.0000
  N   N1        1.0  0.06543  0.37282  0.41009  1.0000
  N   N2        1.0  0.93457  0.62718  0.58991  1.0000
  O   O1        1.0  0.29466  0.57563  0.36739  1.0000
  O   O2        1.0  0.70535  0.42437  0.63261  1.0000
  O   O3        1.0  0.26122  0.96021  0.35488  1.0000
  O   O4        1.0  0.73877  0.03978  0.64512  1.0000
  O   O5        1.0  0.32495  0.14847  0.57425  1.0000
  O   O6        1.0  0.67504  0.85153  0.42575  1.0000
  O   O7        1.0  0.27519  0.98008  0.05768  1.0000
  O   O8        1.0  0.72481  0.01992  0.94233  1.0000
  O   O9        1.0  0.66067  0.86260  0.11958  1.0000
  O   O10       1.0  0.33933  0.13740  0.88042  1.0000
  O   O11       1.0  0.27642  0.61744  0.95097  1.0000
  O   O12       1.0  0.72357  0.38256  0.04903  1.0000
  O   O13       1.0  0.58004  0.53083  0.20730  1.0000
  O   O14       1.0  0.41995  0.46917  0.79270  1.0000
  O   O15       1.0  0.99803  0.30564  0.89314  1.0000
  O   O16       1.0  0.00197  0.69436  0.10686  1.0000
