data_image0
_chemical_formula_structural       Ca3H12C16N2O16
_chemical_formula_sum              "Ca3 H12 C16 N2 O16"
_cell_length_a       6.71418
_cell_length_b       8.71613
_cell_length_c       10.0672
_cell_angle_alpha    108.822
_cell_angle_beta     99.2533
_cell_angle_gamma    98.5485

_space_group_name_H-M_alt    "P 1"
_space_group_IT_number       1

loop_
  _space_group_symop_operation_xyz
  'x, y, z'

loop_
  _atom_site_type_symbol
  _atom_site_label
  _atom_site_symmetry_multiplicity
  _atom_site_fract_x
  _atom_site_fract_y
  _atom_site_fract_z
  _atom_site_occupancy
  Ca  Ca1       1.0  0.55588  0.05550  0.32555  1.0000
  Ca  Ca2       1.0  0.44412  0.94450  0.67445  1.0000
  Ca  Ca3       1.0  0.00000  0.50000  0.00000  1.0000
  H   H1        1.0  0.87595  0.69637  0.37008  1.0000
  H   H2        1.0  0.12404  0.30363  0.62992  1.0000
  H   H3        1.0  0.79119  0.66829  0.77936  1.0000
  H   H4        1.0  0.20881  0.33171  0.22064  1.0000
  H   H5        1.0  0.45167  0.73852  0.11959  1.0000
  H   H6        1.0  0.54833  0.26148  0.88041  1.0000
  H   H7        1.0  0.47681  0.83048  0.00794  1.0000
  H   H8        1.0  0.52319  0.16952  0.99206  1.0000
  H   H9        1.0  0.02145  0.85740  0.13433  1.0000
  H   H10       1.0  0.97855  0.14260  0.86567  1.0000
  H   H11       1.0  0.78132  0.78492  0.08055  1.0000
  H   H12       1.0  0.21868  0.21508  0.91945  1.0000
  C   C1        1.0  0.74456  0.45648  0.37436  1.0000
  C   C2        1.0  0.25544  0.54352  0.62564  1.0000
  C   C3        1.0  0.64826  0.32430  0.67231  1.0000
  C   C4        1.0  0.35174  0.67570  0.32769  1.0000
  C   C5        1.0  0.70816  0.43922  0.59402  1.0000
  C   C6        1.0  0.29183  0.56078  0.40598  1.0000
  C   C7        1.0  0.84198  0.70542  0.58336  1.0000
  C   C8        1.0  0.15802  0.29458  0.41664  1.0000
  C   C9        1.0  0.82782  0.62668  0.43617  1.0000
  C   C10       1.0  0.17218  0.37332  0.56383  1.0000
  C   C11       1.0  0.71501  0.36183  0.21531  1.0000
  C   C12       1.0  0.28499  0.63818  0.78469  1.0000
  C   C13       1.0  0.92269  0.89018  0.65499  1.0000
  C   C14       1.0  0.07731  0.10982  0.34501  1.0000
  C   C15       1.0  0.78136  0.61029  0.66426  1.0000
  C   C16       1.0  0.21864  0.38971  0.33574  1.0000
  N   N1        1.0  0.68523  0.36539  0.45173  1.0000
  N   N2        1.0  0.31477  0.63461  0.54827  1.0000
  O   O1        1.0  0.09488  0.95162  0.63874  1.0000
  O   O2        1.0  0.90512  0.04838  0.36127  1.0000
  O   O3        1.0  0.55454  0.17587  0.59551  1.0000
  O   O4        1.0  0.44546  0.82413  0.40449  1.0000
  O   O5        1.0  0.53979  0.83275  0.10634  1.0000
  O   O6        1.0  0.46021  0.16725  0.89366  1.0000
  O   O7        1.0  0.69528  0.38345  0.80919  1.0000
  O   O8        1.0  0.30472  0.61655  0.19081  1.0000
  O   O9        1.0  0.80868  0.97012  0.72877  1.0000
  O   O10       1.0  0.19132  0.02988  0.27123  1.0000
  O   O11       1.0  0.61454  0.21138  0.16788  1.0000
  O   O12       1.0  0.38546  0.78862  0.83212  1.0000
  O   O13       1.0  0.79011  0.43744  0.14113  1.0000
  O   O14       1.0  0.20989  0.56256  0.85887  1.0000
  O   O15       1.0  0.91688  0.76252  0.06098  1.0000
  O   O16       1.0  0.08313  0.23748  0.93902  1.0000
