data_image0
_chemical_formula_structural       Ni3H30C20N4O20
_chemical_formula_sum              "Ni3 H30 C20 N4 O20"
_cell_length_a       7.41305
_cell_length_b       8.70195
_cell_length_c       11.6375
_cell_angle_alpha    92.5824
_cell_angle_beta     102.22
_cell_angle_gamma    91.9632

_space_group_name_H-M_alt    "P 1"
_space_group_IT_number       1

loop_
  _space_group_symop_operation_xyz
  'x, y, z'

loop_
  _atom_site_type_symbol
  _atom_site_label
  _atom_site_symmetry_multiplicity
  _atom_site_fract_x
  _atom_site_fract_y
  _atom_site_fract_z
  _atom_site_occupancy
  Ni  Ni1       1.0  1.00000  0.00000  0.50000  1.0000
  Ni  Ni2       1.0  0.74465  0.28014  0.84399  1.0000
  Ni  Ni3       1.0  0.25535  0.71985  0.15601  1.0000
  H   H1        1.0  0.48882  0.80056  0.89557  1.0000
  H   H2        1.0  0.51118  0.19944  0.10442  1.0000
  H   H3        1.0  0.28351  0.56161  0.55767  1.0000
  H   H4        1.0  0.71649  0.43838  0.44233  1.0000
  H   H5        1.0  0.81101  0.09870  0.07092  1.0000
  H   H6        1.0  0.18899  0.90130  0.92908  1.0000
  H   H7        1.0  0.97509  0.25481  0.08984  1.0000
  H   H8        1.0  0.02491  0.74519  0.91016  1.0000
  H   H9        1.0  0.76777  0.92656  0.89084  1.0000
  H   H10       1.0  0.23223  0.07344  0.10916  1.0000
  H   H11       1.0  0.90220  0.96133  0.78490  1.0000
  H   H12       1.0  0.09780  0.03867  0.21510  1.0000
  H   H13       1.0  0.06057  0.16893  0.91419  1.0000
  H   H14       1.0  0.93943  0.83107  0.08581  1.0000
  H   H15       1.0  0.47276  0.07238  0.83981  1.0000
  H   H16       1.0  0.52724  0.92761  0.16020  1.0000
  H   H17       1.0  0.70021  0.87246  0.55071  1.0000
  H   H18       1.0  0.29979  0.12754  0.44929  1.0000
  H   H19       1.0  0.43991  0.22011  0.91462  1.0000
  H   H20       1.0  0.56008  0.77989  0.08538  1.0000
  H   H21       1.0  0.09246  0.38067  0.82994  1.0000
  H   H22       1.0  0.90754  0.61933  0.17006  1.0000
  H   H23       1.0  0.70991  0.05003  0.59915  1.0000
  H   H24       1.0  0.29009  0.94997  0.40085  1.0000
  H   H25       1.0  0.80861  0.89828  0.31350  1.0000
  H   H26       1.0  0.19139  0.10172  0.68650  1.0000
  H   H27       1.0  0.95395  0.48196  0.74313  1.0000
  H   H28       1.0  0.04605  0.51804  0.25687  1.0000
  H   H29       1.0  0.96035  0.76677  0.33697  1.0000
  H   H30       1.0  0.03965  0.23323  0.66303  1.0000
  C   C1        1.0  0.71632  0.55798  0.98608  1.0000
  C   C2        1.0  0.28368  0.44202  0.01392  1.0000
  C   C3        1.0  0.59186  0.57551  0.86808  1.0000
  C   C4        1.0  0.40814  0.42449  0.13192  1.0000
  C   C5        1.0  0.48671  0.70154  0.83475  1.0000
  C   C6        1.0  0.51329  0.29846  0.16524  1.0000
  C   C7        1.0  0.37516  0.69845  0.72129  1.0000
  C   C8        1.0  0.62484  0.30156  0.27871  1.0000
  C   C9        1.0  0.26682  0.83770  0.68205  1.0000
  C   C10       1.0  0.73318  0.16230  0.31795  1.0000
  C   C11       1.0  0.37090  0.56808  0.64550  1.0000
  C   C12       1.0  0.62910  0.43192  0.35450  1.0000
  C   C13       1.0  0.48434  0.44746  0.68370  1.0000
  C   C14       1.0  0.51566  0.55254  0.31630  1.0000
  C   C15       1.0  0.50555  0.30347  0.61011  1.0000
  C   C16       1.0  0.49445  0.69653  0.38989  1.0000
  C   C17       1.0  0.94730  0.13490  0.05618  1.0000
  C   C18       1.0  0.05270  0.86510  0.94382  1.0000
  C   C19       1.0  0.90500  0.96655  0.87980  1.0000
  C   C20       1.0  0.09500  0.03345  0.12020  1.0000
  N   N1        1.0  0.59036  0.45376  0.79234  1.0000
  N   N2        1.0  0.40964  0.54624  0.20766  1.0000
  N   N3        1.0  0.93459  0.12837  0.92666  1.0000
  N   N4        1.0  0.06541  0.87163  0.07334  1.0000
  O   O1        1.0  0.61728  0.20572  0.66356  1.0000
  O   O2        1.0  0.38272  0.79428  0.33644  1.0000
  O   O3        1.0  0.41921  0.29048  0.50538  1.0000
  O   O4        1.0  0.58079  0.70952  0.49462  1.0000
  O   O5        1.0  0.80227  0.43477  0.00027  1.0000
  O   O6        1.0  0.19773  0.56524  0.99973  1.0000
  O   O7        1.0  0.73139  0.66554  0.06690  1.0000
  O   O8        1.0  0.26861  0.33446  0.93310  1.0000
  O   O9        1.0  0.30550  0.96093  0.74818  1.0000
  O   O10       1.0  0.69450  0.03907  0.25182  1.0000
  O   O11       1.0  0.14604  0.82146  0.58721  1.0000
  O   O12       1.0  0.85396  0.17854  0.41279  1.0000
  O   O13       1.0  0.53871  0.15083  0.90084  1.0000
  O   O14       1.0  0.46130  0.84916  0.09916  1.0000
  O   O15       1.0  0.97221  0.37769  0.76898  1.0000
  O   O16       1.0  0.02779  0.62231  0.23102  1.0000
  O   O17       1.0  0.87894  0.83061  0.37373  1.0000
  O   O18       1.0  0.12106  0.16939  0.62627  1.0000
  O   O19       1.0  0.78584  0.96086  0.58747  1.0000
  O   O20       1.0  0.21416  0.03914  0.41253  1.0000
