data_image0
_chemical_formula_structural       Ba4H20C32N4O28
_chemical_formula_sum              "Ba4 H20 C32 N4 O28"
_cell_length_a       7.28181
_cell_length_b       7.67599
_cell_length_c       17.5657
_cell_angle_alpha    98.3199
_cell_angle_beta     98.4633
_cell_angle_gamma    90.1992

_space_group_name_H-M_alt    "P 1"
_space_group_IT_number       1

loop_
  _space_group_symop_operation_xyz
  'x, y, z'

loop_
  _atom_site_type_symbol
  _atom_site_label
  _atom_site_symmetry_multiplicity
  _atom_site_fract_x
  _atom_site_fract_y
  _atom_site_fract_z
  _atom_site_occupancy
  Ba  Ba1       1.0  0.24550  0.06955  0.75385  1.0000
  Ba  Ba2       1.0  0.75448  0.93046  0.24615  1.0000
  Ba  Ba3       1.0  0.23117  0.17236  0.15579  1.0000
  Ba  Ba4       1.0  0.76882  0.82762  0.84421  1.0000
  H   H1        1.0  0.98507  0.59958  0.55210  1.0000
  H   H2        1.0  0.01494  0.40043  0.44790  1.0000
  H   H3        1.0  0.12775  0.38362  0.84796  1.0000
  H   H4        1.0  0.87225  0.61637  0.15204  1.0000
  H   H5        1.0  0.16512  0.83557  0.41083  1.0000
  H   H6        1.0  0.83489  0.16445  0.58917  1.0000
  H   H7        1.0  0.48936  0.63353  0.64179  1.0000
  H   H8        1.0  0.51065  0.36647  0.35822  1.0000
  H   H9        1.0  0.38350  0.81815  0.01301  1.0000
  H   H10       1.0  0.61650  0.18185  0.98699  1.0000
  H   H11       1.0  0.41907  0.35527  0.47067  1.0000
  H   H12       1.0  0.58094  0.64472  0.52933  1.0000
  H   H13       1.0  0.01719  0.34885  0.34427  1.0000
  H   H14       1.0  0.98282  0.65115  0.65574  1.0000
  H   H15       1.0  0.08277  0.54431  0.35351  1.0000
  H   H16       1.0  0.91724  0.45569  0.64649  1.0000
  H   H17       1.0  0.04589  0.46557  0.75123  1.0000
  H   H18       1.0  0.95411  0.53442  0.24877  1.0000
  H   H19       1.0  0.86943  0.35268  0.75199  1.0000
  H   H20       1.0  0.13056  0.64733  0.24801  1.0000
  C   C1        1.0  0.26151  0.61378  0.92083  1.0000
  C   C2        1.0  0.73849  0.38622  0.07918  1.0000
  C   C3        1.0  0.18909  0.44194  0.90610  1.0000
  C   C4        1.0  0.81091  0.55806  0.09390  1.0000
  C   C5        1.0  0.22344  0.94682  0.45330  1.0000
  C   C6        1.0  0.77656  0.05319  0.54670  1.0000
  C   C7        1.0  0.22139  0.94774  0.53283  1.0000
  C   C8        1.0  0.77860  0.05226  0.46717  1.0000
  C   C9        1.0  0.29816  0.09427  0.42911  1.0000
  C   C10       1.0  0.70184  0.90574  0.57089  1.0000
  C   C11       1.0  0.32601  0.68475  0.99819  1.0000
  C   C12       1.0  0.67400  0.31524  0.00181  1.0000
  C   C13       1.0  0.34402  0.22931  0.56390  1.0000
  C   C14       1.0  0.65598  0.77069  0.43610  1.0000
  C   C15       1.0  0.14591  0.79965  0.56640  1.0000
  C   C16       1.0  0.85410  0.20036  0.43361  1.0000
  C   C17       1.0  0.33536  0.66399  0.14266  1.0000
  C   C18       1.0  0.66463  0.33601  0.85734  1.0000
  C   C19       1.0  0.19355  0.34286  0.96673  1.0000
  C   C20       1.0  0.80646  0.65714  0.03328  1.0000
  C   C21       1.0  0.38899  0.38380  0.62802  1.0000
  C   C22       1.0  0.61101  0.61620  0.37198  1.0000
  C   C23       1.0  0.14555  0.14706  0.94997  1.0000
  C   C24       1.0  0.85446  0.85294  0.05002  1.0000
  C   C25       1.0  0.30263  0.58425  0.05691  1.0000
  C   C26       1.0  0.69737  0.41574  0.94309  1.0000
  C   C27       1.0  0.36293  0.23660  0.48624  1.0000
  C   C28       1.0  0.63707  0.76340  0.51376  1.0000
  C   C29       1.0  0.25854  0.71585  0.85315  1.0000
  C   C30       1.0  0.74145  0.28415  0.14685  1.0000
  C   C31       1.0  0.29047  0.10202  0.34249  1.0000
  C   C32       1.0  0.70954  0.89798  0.65751  1.0000
  N   N1        1.0  0.27785  0.08643  0.58701  1.0000
  N   N2        1.0  0.72214  0.91357  0.41299  1.0000
  N   N3        1.0  0.24349  0.41460  0.04123  1.0000
  N   N4        1.0  0.75652  0.58540  0.95877  1.0000
  O   O1        1.0  0.10232  0.43646  0.37896  1.0000
  O   O2        1.0  0.89769  0.56354  0.62104  1.0000
  O   O3        1.0  0.04955  0.67552  0.51715  1.0000
  O   O4        1.0  0.95045  0.32447  0.48285  1.0000
  O   O5        1.0  0.42122  0.18249  0.31885  1.0000
  O   O6        1.0  0.57879  0.81751  0.68115  1.0000
  O   O7        1.0  0.06560  0.08729  0.88107  1.0000
  O   O8        1.0  0.93439  0.91271  0.11893  1.0000
  O   O9        1.0  0.19185  0.05750  0.00389  1.0000
  O   O10       1.0  0.80818  0.94249  0.99611  1.0000
  O   O11       1.0  0.39534  0.81593  0.85066  1.0000
  O   O12       1.0  0.60465  0.18406  0.14934  1.0000
  O   O13       1.0  0.11273  0.69494  0.80183  1.0000
  O   O14       1.0  0.88725  0.30506  0.19817  1.0000
  O   O15       1.0  0.16825  0.80129  0.63788  1.0000
  O   O16       1.0  0.83175  0.19870  0.36210  1.0000
  O   O17       1.0  0.15199  0.02770  0.29799  1.0000
  O   O18       1.0  0.84802  0.97229  0.70201  1.0000
  O   O19       1.0  0.36714  0.37616  0.69560  1.0000
  O   O20       1.0  0.63288  0.62383  0.30440  1.0000
  O   O21       1.0  0.28099  0.57058  0.18948  1.0000
  O   O22       1.0  0.71900  0.42943  0.81052  1.0000
  O   O23       1.0  0.44902  0.52314  0.60189  1.0000
  O   O24       1.0  0.55099  0.47687  0.39811  1.0000
  O   O25       1.0  0.98485  0.35132  0.72649  1.0000
  O   O26       1.0  0.01514  0.64868  0.27350  1.0000
  O   O27       1.0  0.41043  0.81776  0.16061  1.0000
  O   O28       1.0  0.58955  0.18225  0.83939  1.0000
