data_image0
_chemical_formula_structural       Cd2H28C52N8O8
_chemical_formula_sum              "Cd2 H28 C52 N8 O8"
_cell_length_a       7.17628
_cell_length_b       12.5211
_cell_length_c       12.5211
_cell_angle_alpha    66.957
_cell_angle_beta     80.2158
_cell_angle_gamma    80.2157

_space_group_name_H-M_alt    "P 1"
_space_group_IT_number       1

loop_
  _space_group_symop_operation_xyz
  'x, y, z'

loop_
  _atom_site_type_symbol
  _atom_site_label
  _atom_site_symmetry_multiplicity
  _atom_site_fract_x
  _atom_site_fract_y
  _atom_site_fract_z
  _atom_site_occupancy
  Cd  Cd1       1.0  0.75000  0.40909  0.59091  1.0000
  Cd  Cd2       1.0  0.25000  0.59091  0.40909  1.0000
  H   H1        1.0  0.79428  0.31344  0.28176  1.0000
  H   H2        1.0  0.70573  0.71824  0.68657  1.0000
  H   H3        1.0  0.20572  0.68657  0.71824  1.0000
  H   H4        1.0  0.29428  0.28176  0.31343  1.0000
  H   H5        1.0  0.63358  0.81719  0.28783  1.0000
  H   H6        1.0  0.86643  0.71217  0.18281  1.0000
  H   H7        1.0  0.36643  0.18281  0.71217  1.0000
  H   H8        1.0  0.13357  0.28783  0.81719  1.0000
  H   H9        1.0  0.46569  0.17716  0.12604  1.0000
  H   H10       1.0  0.03432  0.87396  0.82283  1.0000
  H   H11       1.0  0.53431  0.82284  0.87396  1.0000
  H   H12       1.0  0.96569  0.12604  0.17716  1.0000
  H   H13       1.0  0.10423  0.61261  0.12971  1.0000
  H   H14       1.0  0.39576  0.87029  0.38740  1.0000
  H   H15       1.0  0.89577  0.38740  0.87029  1.0000
  H   H16       1.0  0.60423  0.12971  0.61260  1.0000
  H   H17       1.0  0.80119  0.30524  0.08470  1.0000
  H   H18       1.0  0.69881  0.91529  0.69476  1.0000
  H   H19       1.0  0.19881  0.69476  0.91529  1.0000
  H   H20       1.0  0.30119  0.08470  0.30524  1.0000
  H   H21       1.0  0.36211  0.39063  0.01477  1.0000
  H   H22       1.0  0.13789  0.98523  0.60937  1.0000
  H   H23       1.0  0.63789  0.60937  0.98523  1.0000
  H   H24       1.0  0.86211  0.01478  0.39063  1.0000
  H   H25       1.0  0.47793  0.47775  0.80014  1.0000
  H   H26       1.0  0.02208  0.19986  0.52224  1.0000
  H   H27       1.0  0.52207  0.52225  0.19986  1.0000
  H   H28       1.0  0.97792  0.80014  0.47775  1.0000
  C   C1        1.0  0.68924  0.03021  0.03249  1.0000
  C   C2        1.0  0.81075  0.96751  0.96979  1.0000
  C   C3        1.0  0.31075  0.96979  0.96751  1.0000
  C   C4        1.0  0.18924  0.03249  0.03021  1.0000
  C   C5        1.0  0.68767  0.21091  0.85381  1.0000
  C   C6        1.0  0.81233  0.14618  0.78909  1.0000
  C   C7        1.0  0.31233  0.78909  0.14619  1.0000
  C   C8        1.0  0.18767  0.85382  0.21091  1.0000
  C   C9        1.0  0.86411  0.37623  0.20385  1.0000
  C   C10       1.0  0.63589  0.79615  0.62377  1.0000
  C   C11       1.0  0.13589  0.62377  0.79615  1.0000
  C   C12       1.0  0.36411  0.20385  0.37623  1.0000
  C   C13       1.0  0.93293  0.47379  0.33459  1.0000
  C   C14       1.0  0.56708  0.66541  0.52621  1.0000
  C   C15       1.0  0.06707  0.52621  0.66541  1.0000
  C   C16       1.0  0.43293  0.33459  0.47379  1.0000
  C   C17       1.0  0.62903  0.15386  0.97417  1.0000
  C   C18       1.0  0.87097  0.02582  0.84614  1.0000
  C   C19       1.0  0.37097  0.84614  0.02582  1.0000
  C   C20       1.0  0.12903  0.97418  0.15386  1.0000
  C   C21       1.0  0.68603  0.86399  0.19678  1.0000
  C   C22       1.0  0.81397  0.80322  0.13601  1.0000
  C   C23       1.0  0.31397  0.13601  0.80322  1.0000
  C   C24       1.0  0.18603  0.19678  0.86399  1.0000
  C   C25       1.0  0.94850  0.46481  0.21665  1.0000
  C   C26       1.0  0.55150  0.78335  0.53520  1.0000
  C   C27       1.0  0.05150  0.53520  0.78335  1.0000
  C   C28       1.0  0.44850  0.21665  0.46480  1.0000
  C   C29       1.0  0.51074  0.22005  0.03323  1.0000
  C   C30       1.0  0.98926  0.96677  0.77994  1.0000
  C   C31       1.0  0.48926  0.77994  0.96677  1.0000
  C   C32       1.0  0.01073  0.03323  0.22006  1.0000
  C   C33       1.0  0.04405  0.54424  0.00632  1.0000
  C   C34       1.0  0.45595  0.99368  0.45577  1.0000
  C   C35       1.0  0.95595  0.45576  0.99368  1.0000
  C   C36       1.0  0.54405  0.00632  0.54424  1.0000
  C   C37       1.0  0.03839  0.54569  0.11924  1.0000
  C   C38       1.0  0.46161  0.88076  0.45431  1.0000
  C   C39       1.0  0.96161  0.45431  0.88076  1.0000
  C   C40       1.0  0.53839  0.11924  0.54570  1.0000
  C   C41       1.0  0.86752  0.37220  0.09516  1.0000
  C   C42       1.0  0.63248  0.90484  0.62780  1.0000
  C   C43       1.0  0.13248  0.62780  0.90484  1.0000
  C   C44       1.0  0.36752  0.09515  0.37220  1.0000
  C   C45       1.0  0.45458  0.33695  0.97218  1.0000
  C   C46       1.0  0.04542  0.02781  0.66304  1.0000
  C   C47       1.0  0.54542  0.66305  0.02782  1.0000
  C   C48       1.0  0.95458  0.97219  0.33695  1.0000
  C   C49       1.0  0.51751  0.38618  0.85253  1.0000
  C   C50       1.0  0.98249  0.14747  0.61381  1.0000
  C   C51       1.0  0.48249  0.61382  0.14747  1.0000
  C   C52       1.0  0.01751  0.85254  0.38618  1.0000
  N   N1        1.0  0.62494  0.97668  0.14638  1.0000
  N   N2        1.0  0.87506  0.85362  0.02332  1.0000
  N   N3        1.0  0.37506  0.02332  0.85362  1.0000
  N   N4        1.0  0.12493  0.14638  0.97668  1.0000
  N   N5        1.0  0.63088  0.32486  0.79567  1.0000
  N   N6        1.0  0.86912  0.20432  0.67513  1.0000
  N   N7        1.0  0.36912  0.67514  0.20433  1.0000
  N   N8        1.0  0.13087  0.79568  0.32486  1.0000
  O   O1        1.0  0.86904  0.38778  0.42155  1.0000
  O   O2        1.0  0.63096  0.57844  0.61222  1.0000
  O   O3        1.0  0.13096  0.61222  0.57845  1.0000
  O   O4        1.0  0.36904  0.42155  0.38778  1.0000
  O   O5        1.0  0.97720  0.56536  0.33943  1.0000
  O   O6        1.0  0.52280  0.66057  0.43464  1.0000
  O   O7        1.0  0.02280  0.43464  0.66057  1.0000
  O   O8        1.0  0.47720  0.33943  0.56536  1.0000
