data_image0
_chemical_formula_structural       Cu2H32C34N2O8
_chemical_formula_sum              "Cu2 H32 C34 N2 O8"
_cell_length_a       9.6568
_cell_length_b       10.1253
_cell_length_c       10.5526
_cell_angle_alpha    71.9968
_cell_angle_beta     63.8809
_cell_angle_gamma    63.0684

_space_group_name_H-M_alt    "P 1"
_space_group_IT_number       1

loop_
  _space_group_symop_operation_xyz
  'x, y, z'

loop_
  _atom_site_type_symbol
  _atom_site_label
  _atom_site_symmetry_multiplicity
  _atom_site_fract_x
  _atom_site_fract_y
  _atom_site_fract_z
  _atom_site_occupancy
  Cu  Cu1       1.0  0.37123  0.48771  0.50531  1.0000
  Cu  Cu2       1.0  0.62879  0.51229  0.49470  1.0000
  H   H1        1.0  0.39126  0.65326  0.07229  1.0000
  H   H2        1.0  0.60873  0.34674  0.92774  1.0000
  H   H3        1.0  0.42137  0.79138  0.82696  1.0000
  H   H4        1.0  0.57860  0.20861  0.17306  1.0000
  H   H5        1.0  0.61362  0.93087  0.71209  1.0000
  H   H6        1.0  0.38638  0.06909  0.28791  1.0000
  H   H7        1.0  0.77784  0.92652  0.84206  1.0000
  H   H8        1.0  0.22214  0.07348  0.15793  1.0000
  H   H9        1.0  0.75063  0.78422  0.08421  1.0000
  H   H10       1.0  0.24937  0.21579  0.91579  1.0000
  H   H11       1.0  0.99928  0.90650  0.62986  1.0000
  H   H12       1.0  0.00073  0.09352  0.37012  1.0000
  H   H13       1.0  0.81951  0.15936  0.71108  1.0000
  H   H14       1.0  0.18049  0.84065  0.28892  1.0000
  H   H15       1.0  0.94384  0.30055  0.75312  1.0000
  H   H16       1.0  0.05615  0.69946  0.24689  1.0000
  H   H17       1.0  0.24970  0.20329  0.69700  1.0000
  H   H18       1.0  0.75029  0.79673  0.30301  1.0000
  H   H19       1.0  0.42687  0.95377  0.61283  1.0000
  H   H20       1.0  0.57313  0.04626  0.38716  1.0000
  H   H21       1.0  0.27266  0.36398  0.34003  1.0000
  H   H22       1.0  0.72737  0.63602  0.65999  1.0000
  H   H23       1.0  0.00817  0.38118  0.32716  1.0000
  H   H24       1.0  0.99186  0.61883  0.67285  1.0000
  H   H25       1.0  0.93945  0.40674  0.93691  1.0000
  H   H26       1.0  0.06052  0.59325  0.06307  1.0000
  H   H27       1.0  0.93968  0.22689  0.03463  1.0000
  H   H28       1.0  0.06030  0.77310  0.96535  1.0000
  H   H29       1.0  0.74757  0.38339  0.05162  1.0000
  H   H30       1.0  0.25241  0.61659  0.94836  1.0000
  H   H31       1.0  0.88560  0.37590  0.12575  1.0000
  H   H32       1.0  0.11438  0.62408  0.87423  1.0000
  C   C1        1.0  0.54882  0.62854  0.24052  1.0000
  C   C2        1.0  0.45119  0.37145  0.75948  1.0000
  C   C3        1.0  0.56875  0.71079  0.09299  1.0000
  C   C4        1.0  0.43125  0.28920  0.90701  1.0000
  C   C5        1.0  0.47589  0.71325  0.02026  1.0000
  C   C6        1.0  0.52410  0.28675  0.97975  1.0000
  C   C7        1.0  0.49295  0.79093  0.88326  1.0000
  C   C8        1.0  0.50704  0.20906  0.11675  1.0000
  C   C9        1.0  0.60134  0.86829  0.81877  1.0000
  C   C10       1.0  0.39865  0.13169  0.18123  1.0000
  C   C11       1.0  0.69405  0.86588  0.89101  1.0000
  C   C12       1.0  0.30594  0.13411  0.10899  1.0000
  C   C13       1.0  0.67869  0.78679  0.02735  1.0000
  C   C14       1.0  0.32131  0.21320  0.97265  1.0000
  C   C15       1.0  0.32718  0.76108  0.57843  1.0000
  C   C16       1.0  0.67283  0.23893  0.42157  1.0000
  C   C17       1.0  0.22235  0.91402  0.62072  1.0000
  C   C18       1.0  0.77766  0.08599  0.37927  1.0000
  C   C19       1.0  0.05151  0.97232  0.64658  1.0000
  C   C20       1.0  0.94850  0.02769  0.35341  1.0000
  C   C21       1.0  0.95203  0.11194  0.69266  1.0000
  C   C22       1.0  0.04797  0.88807  0.30734  1.0000
  C   C23       1.0  0.02282  0.19289  0.71427  1.0000
  C   C24       1.0  0.97718  0.80712  0.28573  1.0000
  C   C25       1.0  0.19375  0.13768  0.68472  1.0000
  C   C26       1.0  0.80624  0.86234  0.31528  1.0000
  C   C27       1.0  0.29337  0.99870  0.63724  1.0000
  C   C28       1.0  0.70663  0.00132  0.36275  1.0000
  C   C29       1.0  0.15020  0.42469  0.41154  1.0000
  C   C30       1.0  0.84983  0.57532  0.58847  1.0000
  C   C31       1.0  0.00526  0.43469  0.40401  1.0000
  C   C32       1.0  0.99477  0.56531  0.59600  1.0000
  C   C33       1.0  0.87840  0.34784  0.03715  1.0000
  C   C34       1.0  0.12157  0.65215  0.96282  1.0000
  N   N1        1.0  0.14450  0.48985  0.50760  1.0000
  N   N2        1.0  0.85553  0.51015  0.49242  1.0000
  O   O1        1.0  0.42776  0.58334  0.30210  1.0000
  O   O2        1.0  0.57225  0.41665  0.69791  1.0000
  O   O3        1.0  0.65270  0.61099  0.29403  1.0000
  O   O4        1.0  0.34732  0.38900  0.70597  1.0000
  O   O5        1.0  0.25354  0.69013  0.56689  1.0000
  O   O6        1.0  0.74647  0.30987  0.43312  1.0000
  O   O7        1.0  0.48168  0.71277  0.55808  1.0000
  O   O8        1.0  0.51833  0.28723  0.44192  1.0000
