data_image0
_chemical_formula_structural       Ag4H12C20N8O8
_chemical_formula_sum              "Ag4 H12 C20 N8 O8"
_cell_length_a       6.9557
_cell_length_b       6.87026
_cell_length_c       11.5297
_cell_angle_alpha    90.0001
_cell_angle_beta     90
_cell_angle_gamma    90

_space_group_name_H-M_alt    "P 1"
_space_group_IT_number       1

loop_
  _space_group_symop_operation_xyz
  'x, y, z'

loop_
  _atom_site_type_symbol
  _atom_site_label
  _atom_site_symmetry_multiplicity
  _atom_site_fract_x
  _atom_site_fract_y
  _atom_site_fract_z
  _atom_site_occupancy
  Ag  Ag1       1.0  0.48666  0.10178  0.40578  1.0000
  Ag  Ag2       1.0  0.48666  0.60177  0.09422  1.0000
  Ag  Ag3       1.0  0.98666  0.89823  0.59422  1.0000
  Ag  Ag4       1.0  0.98666  0.39822  0.90578  1.0000
  H   H1        1.0  0.55596  0.30154  0.84461  1.0000
  H   H2        1.0  0.55595  0.80153  0.65539  1.0000
  H   H3        1.0  0.05596  0.69846  0.15539  1.0000
  H   H4        1.0  0.05595  0.19846  0.34461  1.0000
  H   H5        1.0  0.02467  0.46697  0.64438  1.0000
  H   H6        1.0  0.02467  0.96697  0.85562  1.0000
  H   H7        1.0  0.52467  0.53303  0.35562  1.0000
  H   H8        1.0  0.52467  0.03303  0.14438  1.0000
  H   H9        1.0  0.83675  0.37547  0.46102  1.0000
  H   H10       1.0  0.83675  0.87547  0.03898  1.0000
  H   H11       1.0  0.33675  0.62453  0.53898  1.0000
  H   H12       1.0  0.33675  0.12453  0.96102  1.0000
  C   C1        1.0  0.51900  0.26070  0.66000  1.0000
  C   C2        1.0  0.51900  0.76070  0.84000  1.0000
  C   C3        1.0  0.01900  0.73930  0.34000  1.0000
  C   C4        1.0  0.01900  0.23930  0.16000  1.0000
  C   C5        1.0  0.62045  0.31623  0.75903  1.0000
  C   C6        1.0  0.62045  0.81623  0.74097  1.0000
  C   C7        1.0  0.12045  0.68377  0.24097  1.0000
  C   C8        1.0  0.12045  0.18377  0.25903  1.0000
  C   C9        1.0  0.87941  0.40782  0.64719  1.0000
  C   C10       1.0  0.87941  0.90782  0.85281  1.0000
  C   C11       1.0  0.37941  0.59218  0.35281  1.0000
  C   C12       1.0  0.37941  0.09218  0.14719  1.0000
  C   C13       1.0  0.77727  0.35706  0.54790  1.0000
  C   C14       1.0  0.77727  0.85706  0.95210  1.0000
  C   C15       1.0  0.27727  0.64294  0.45210  1.0000
  C   C16       1.0  0.27727  0.14294  0.04790  1.0000
  C   C17       1.0  0.32052  0.16911  0.67035  1.0000
  C   C18       1.0  0.32052  0.66911  0.82965  1.0000
  C   C19       1.0  0.82052  0.83089  0.32965  1.0000
  C   C20       1.0  0.82052  0.33089  0.17035  1.0000
  N   N1        1.0  0.59982  0.28043  0.55427  1.0000
  N   N2        1.0  0.59982  0.78043  0.94573  1.0000
  N   N3        1.0  0.09982  0.71957  0.44573  1.0000
  N   N4        1.0  0.09982  0.21957  0.05427  1.0000
  N   N5        1.0  0.80086  0.38532  0.75307  1.0000
  N   N6        1.0  0.80086  0.88532  0.74694  1.0000
  N   N7        1.0  0.30086  0.61468  0.24693  1.0000
  N   N8        1.0  0.30086  0.11468  0.25307  1.0000
  O   O1        1.0  0.25453  0.14741  0.77098  1.0000
  O   O2        1.0  0.25452  0.64741  0.72902  1.0000
  O   O3        1.0  0.75453  0.85259  0.22902  1.0000
  O   O4        1.0  0.75453  0.35259  0.27098  1.0000
  O   O5        1.0  0.24082  0.11874  0.57490  1.0000
  O   O6        1.0  0.24082  0.61874  0.92510  1.0000
  O   O7        1.0  0.74082  0.88126  0.42510  1.0000
  O   O8        1.0  0.74082  0.38126  0.07490  1.0000
