data_image0
_chemical_formula_structural       H12PbC12Br2N2
_chemical_formula_sum              "H12 Pb1 C12 Br2 N2"
_cell_length_a       4.29266
_cell_length_b       8.69506
_cell_length_c       9.85428
_cell_angle_alpha    75.1094
_cell_angle_beta     82.3428
_cell_angle_gamma    81.9519

_space_group_name_H-M_alt    "P 1"
_space_group_IT_number       1

loop_
  _space_group_symop_operation_xyz
  'x, y, z'

loop_
  _atom_site_type_symbol
  _atom_site_label
  _atom_site_symmetry_multiplicity
  _atom_site_fract_x
  _atom_site_fract_y
  _atom_site_fract_z
  _atom_site_occupancy
  H   H1        1.0  0.69108  0.86039  0.54270  1.0000
  H   H2        1.0  0.30894  0.13958  0.45732  1.0000
  H   H3        1.0  0.76574  0.00324  0.72363  1.0000
  H   H4        1.0  0.23402  0.99681  0.27638  1.0000
  H   H5        1.0  0.25798  0.65238  0.03278  1.0000
  H   H6        1.0  0.74191  0.34761  0.96723  1.0000
  H   H7        1.0  0.19744  0.52576  0.83713  1.0000
  H   H8        1.0  0.80258  0.47420  0.16288  1.0000
  H   H9        1.0  0.48225  0.84070  0.11296  1.0000
  H   H10       1.0  0.51766  0.15927  0.88706  1.0000
  H   H11       1.0  0.83051  0.90823  0.01351  1.0000
  H   H12       1.0  0.16941  0.09174  0.98651  1.0000
  Pb  Pb1       1.0  0.50029  0.50005  0.49992  1.0000
  C   C1        1.0  0.59392  0.81966  0.65249  1.0000
  C   C2        1.0  0.40606  0.18032  0.34754  1.0000
  C   C3        1.0  0.63680  0.89786  0.75409  1.0000
  C   C4        1.0  0.36307  0.10215  0.24593  1.0000
  C   C5        1.0  0.51971  0.83794  0.89503  1.0000
  C   C6        1.0  0.48020  0.16205  0.10499  1.0000
  C   C7        1.0  0.35572  0.70282  0.92493  1.0000
  C   C8        1.0  0.64423  0.29716  0.07508  1.0000
  C   C9        1.0  0.32175  0.63215  0.81675  1.0000
  C   C10       1.0  0.67826  0.36782  0.18326  1.0000
  C   C11       1.0  0.57410  0.91249  0.01034  1.0000
  C   C12       1.0  0.42582  0.08749  0.98968  1.0000
  Br  Br1       1.0  0.99561  0.70033  0.32117  1.0000
  Br  Br2       1.0  0.00490  0.29989  0.67870  1.0000
  N   N1        1.0  0.44050  0.68821  0.68259  1.0000
  N   N2        1.0  0.55955  0.31175  0.31743  1.0000
