data_image0
_chemical_formula_structural       H10PbC12Br2N2
_chemical_formula_sum              "H10 Pb1 C12 Br2 N2"
_cell_length_a       4.16669
_cell_length_b       8.9708
_cell_length_c       9.61218
_cell_angle_alpha    74.7999
_cell_angle_beta     87.0046
_cell_angle_gamma    80.6107

_space_group_name_H-M_alt    "P 1"
_space_group_IT_number       1

loop_
  _space_group_symop_operation_xyz
  'x, y, z'

loop_
  _atom_site_type_symbol
  _atom_site_label
  _atom_site_symmetry_multiplicity
  _atom_site_fract_x
  _atom_site_fract_y
  _atom_site_fract_z
  _atom_site_occupancy
  H   H1        1.0  0.21745  0.52240  0.83719  1.0000
  H   H2        1.0  0.78210  0.47771  0.16273  1.0000
  H   H3        1.0  0.20420  0.66786  0.02875  1.0000
  H   H4        1.0  0.79528  0.33224  0.97118  1.0000
  H   H5        1.0  0.68064  0.01175  0.72271  1.0000
  H   H6        1.0  0.31898  0.98833  0.27729  1.0000
  H   H7        1.0  0.67681  0.85180  0.54704  1.0000
  H   H8        1.0  0.32315  0.14823  0.45297  1.0000
  H   H9        1.0  0.31914  0.87958  0.10669  1.0000
  H   H10       1.0  0.68071  0.12042  0.89333  1.0000
  Pb  Pb1       1.0  0.50131  0.49977  0.50009  1.0000
  C   C1        1.0  0.31796  0.63148  0.81712  1.0000
  C   C2        1.0  0.68169  0.36860  0.18281  1.0000
  C   C3        1.0  0.31111  0.71218  0.92281  1.0000
  C   C4        1.0  0.68846  0.28792  0.07713  1.0000
  C   C5        1.0  0.44260  0.85234  0.89314  1.0000
  C   C6        1.0  0.55709  0.14772  0.10684  1.0000
  C   C7        1.0  0.57445  0.90427  0.75391  1.0000
  C   C8        1.0  0.42522  0.09580  0.24608  1.0000
  C   C9        1.0  0.57158  0.81610  0.65503  1.0000
  C   C10       1.0  0.42827  0.18394  0.34497  1.0000
  C   C11       1.0  0.43667  0.93382  0.00598  1.0000
  C   C12       1.0  0.56313  0.06620  0.99403  1.0000
  Br  Br1       1.0  0.94685  0.70575  0.31614  1.0000
  Br  Br2       1.0  0.05525  0.29376  0.68409  1.0000
  N   N1        1.0  0.44615  0.68164  0.68504  1.0000
  N   N2        1.0  0.55375  0.31839  0.31494  1.0000
