data_image0
_chemical_formula_structural       Ag2H20C24N10O6
_chemical_formula_sum              "Ag2 H20 C24 N10 O6"
_cell_length_a       7.89099
_cell_length_b       9.34087
_cell_length_c       9.91991
_cell_angle_alpha    66.1375
_cell_angle_beta     80.3064
_cell_angle_gamma    69.5164

_space_group_name_H-M_alt    "P 1"
_space_group_IT_number       1

loop_
  _space_group_symop_operation_xyz
  'x, y, z'

loop_
  _atom_site_type_symbol
  _atom_site_label
  _atom_site_symmetry_multiplicity
  _atom_site_fract_x
  _atom_site_fract_y
  _atom_site_fract_z
  _atom_site_occupancy
  Ag  Ag1       1.0  0.15911  0.61056  0.30634  1.0000
  Ag  Ag2       1.0  0.84089  0.38944  0.69366  1.0000
  H   H1        1.0  0.13642  0.45091  0.14513  1.0000
  H   H2        1.0  0.86358  0.54909  0.85487  1.0000
  H   H3        1.0  0.39533  0.25997  0.06512  1.0000
  H   H4        1.0  0.60467  0.74003  0.93488  1.0000
  H   H5        1.0  0.53950  0.35460  0.81437  1.0000
  H   H6        1.0  0.46050  0.64540  0.18563  1.0000
  H   H7        1.0  0.18303  0.84945  0.73545  1.0000
  H   H8        1.0  0.81697  0.15055  0.26455  1.0000
  H   H9        1.0  0.86478  0.92473  0.78412  1.0000
  H   H10       1.0  0.13522  0.07528  0.21588  1.0000
  H   H11       1.0  0.63421  0.09153  0.95352  1.0000
  H   H12       1.0  0.36579  0.90846  0.04648  1.0000
  H   H13       1.0  0.78340  0.92085  0.22992  1.0000
  H   H14       1.0  0.21660  0.07915  0.77008  1.0000
  H   H15       1.0  0.23527  0.89252  0.51221  1.0000
  H   H16       1.0  0.76473  0.10748  0.48779  1.0000
  H   H17       1.0  0.46010  0.90744  0.26974  1.0000
  H   H18       1.0  0.53990  0.09256  0.73026  1.0000
  H   H19       1.0  0.75011  0.62106  0.36710  1.0000
  H   H20       1.0  0.24989  0.37894  0.63290  1.0000
  C   C1        1.0  0.14630  0.66264  0.94439  1.0000
  C   C2        1.0  0.85370  0.33736  0.05561  1.0000
  C   C3        1.0  0.20422  0.49727  0.03886  1.0000
  C   C4        1.0  0.79578  0.50273  0.96114  1.0000
  C   C5        1.0  0.34912  0.38891  0.99179  1.0000
  C   C6        1.0  0.65088  0.61109  0.00821  1.0000
  C   C7        1.0  0.43033  0.44122  0.85219  1.0000
  C   C8        1.0  0.56967  0.55878  0.14781  1.0000
  C   C9        1.0  0.36870  0.60693  0.75855  1.0000
  C   C10       1.0  0.63129  0.39307  0.24145  1.0000
  C   C11       1.0  0.22848  0.71935  0.80562  1.0000
  C   C12       1.0  0.77151  0.28065  0.19438  1.0000
  C   C13       1.0  0.86800  0.90539  0.89928  1.0000
  C   C14       1.0  0.13199  0.09461  0.10072  1.0000
  C   C15       1.0  0.75372  0.98513  0.98727  1.0000
  C   C16       1.0  0.24628  0.01487  0.01273  1.0000
  C   C17       1.0  0.82632  0.89876  0.12845  1.0000
  C   C18       1.0  0.17368  0.10123  0.87155  1.0000
  C   C19       1.0  0.36532  0.80611  0.50025  1.0000
  C   C20       1.0  0.63468  0.19389  0.49975  1.0000
  C   C21       1.0  0.48093  0.81109  0.37842  1.0000
  C   C22       1.0  0.51907  0.18891  0.62158  1.0000
  C   C23       1.0  0.62883  0.66669  0.42667  1.0000
  C   C24       1.0  0.37117  0.33331  0.57333  1.0000
  N   N1        1.0  0.99921  0.77779  0.98725  1.0000
  N   N2        1.0  0.00079  0.22221  0.01275  1.0000
  N   N3        1.0  0.97524  0.77276  0.12847  1.0000
  N   N4        1.0  0.02476  0.22724  0.87153  1.0000
  N   N5        1.0  0.44415  0.66466  0.61422  1.0000
  N   N6        1.0  0.55585  0.33534  0.38578  1.0000
  N   N7        1.0  0.60695  0.57793  0.56967  1.0000
  N   N8        1.0  0.39305  0.42207  0.43033  1.0000
  N   N9        1.0  0.93042  0.77004  0.54425  1.0000
  N   N10       1.0  0.06958  0.22996  0.45575  1.0000
  O   O1        1.0  0.02147  0.62045  0.56255  1.0000
  O   O2        1.0  0.97853  0.37956  0.43745  1.0000
  O   O3        1.0  0.94283  0.88341  0.42073  1.0000
  O   O4        1.0  0.05717  0.11659  0.57927  1.0000
  O   O5        1.0  0.83061  0.80272  0.64799  1.0000
  O   O6        1.0  0.16939  0.19729  0.35201  1.0000
