data_image0
_chemical_formula_structural       CoH24C18S2N6O2
_chemical_formula_sum              "Co1 H24 C18 S2 N6 O2"
_cell_length_a       7.58862
_cell_length_b       8.55147
_cell_length_c       9.87957
_cell_angle_alpha    65.0949
_cell_angle_beta     81.5371
_cell_angle_gamma    73.2608

_space_group_name_H-M_alt    "P 1"
_space_group_IT_number       1

loop_
  _space_group_symop_operation_xyz
  'x, y, z'

loop_
  _atom_site_type_symbol
  _atom_site_label
  _atom_site_symmetry_multiplicity
  _atom_site_fract_x
  _atom_site_fract_y
  _atom_site_fract_z
  _atom_site_occupancy
  Co  Co1       1.0  0.50000  0.50000  0.50000  1.0000
  H   H1        1.0  0.41760  0.42740  0.26222  1.0000
  H   H2        1.0  0.58240  0.57260  0.73778  1.0000
  H   H3        1.0  0.56922  0.25936  0.36089  1.0000
  H   H4        1.0  0.43078  0.74063  0.63911  1.0000
  H   H5        1.0  0.38563  0.17079  0.67545  1.0000
  H   H6        1.0  0.61438  0.82921  0.32455  1.0000
  H   H7        1.0  0.12745  0.08132  0.84871  1.0000
  H   H8        1.0  0.87256  0.91867  0.15130  1.0000
  H   H9        1.0  0.86261  0.64088  0.72311  1.0000
  H   H10       1.0  0.13738  0.35912  0.27689  1.0000
  H   H11       1.0  0.13492  0.70652  0.56691  1.0000
  H   H12       1.0  0.86506  0.29349  0.43308  1.0000
  H   H13       1.0  0.78729  0.18871  0.89597  1.0000
  H   H14       1.0  0.21271  0.81129  0.10404  1.0000
  H   H15       1.0  0.88376  0.22001  0.03113  1.0000
  H   H16       1.0  0.11624  0.77999  0.96888  1.0000
  H   H17       1.0  0.53422  0.23686  0.10047  1.0000
  H   H18       1.0  0.46578  0.76314  0.89953  1.0000
  H   H19       1.0  0.48310  0.27391  0.91766  1.0000
  H   H20       1.0  0.51690  0.72609  0.08234  1.0000
  H   H21       1.0  0.78496  0.59233  0.95666  1.0000
  H   H22       1.0  0.21504  0.40767  0.04334  1.0000
  H   H23       1.0  0.71686  0.42797  0.12232  1.0000
  H   H24       1.0  0.28314  0.57203  0.87768  1.0000
  C   C1        1.0  0.26970  0.27047  0.69295  1.0000
  C   C2        1.0  0.73028  0.72954  0.30706  1.0000
  C   C3        1.0  0.12430  0.22210  0.78918  1.0000
  C   C4        1.0  0.87572  0.77790  0.21082  1.0000
  C   C5        1.0  0.97332  0.35244  0.80799  1.0000
  C   C6        1.0  0.02667  0.64756  0.19201  1.0000
  C   C7        1.0  0.97653  0.52964  0.72204  1.0000
  C   C8        1.0  0.02349  0.47036  0.27795  1.0000
  C   C9        1.0  0.13001  0.56875  0.63143  1.0000
  C   C10       1.0  0.86997  0.43125  0.36857  1.0000
  C   C11       1.0  0.82359  0.29072  0.91857  1.0000
  C   C12       1.0  0.17641  0.70928  0.08144  1.0000
  C   C13       1.0  0.50173  0.34048  0.98642  1.0000
  C   C14       1.0  0.49827  0.65952  0.01358  1.0000
  C   C15       1.0  0.67536  0.52330  0.00753  1.0000
  C   C16       1.0  0.32463  0.47670  0.99247  1.0000
  C   C17       1.0  0.27302  0.86466  0.30890  1.0000
  C   C18       1.0  0.72699  0.13534  0.69109  1.0000
  S   S1        1.0  0.15911  0.06756  0.21823  1.0000
  S   S2        1.0  0.84091  0.93243  0.78176  1.0000
  N   N1        1.0  0.35631  0.71467  0.37228  1.0000
  N   N2        1.0  0.64369  0.28534  0.62771  1.0000
  N   N3        1.0  0.27776  0.44239  0.61747  1.0000
  N   N4        1.0  0.72224  0.55761  0.38253  1.0000
  N   N5        1.0  0.65447  0.42647  0.92034  1.0000
  N   N6        1.0  0.34553  0.57353  0.07967  1.0000
  O   O1        1.0  0.45715  0.34642  0.36824  1.0000
  O   O2        1.0  0.54285  0.65357  0.63176  1.0000
