data_image0
_chemical_formula_structural       Ag4H20C20N8O16
_chemical_formula_sum              "Ag4 H20 C20 N8 O16"
_cell_length_a       3.67694
_cell_length_b       9.38674
_cell_length_c       21.8612
_cell_angle_alpha    102.783
_cell_angle_beta     90.0625
_cell_angle_gamma    101.338

_space_group_name_H-M_alt    "P 1"
_space_group_IT_number       1

loop_
  _space_group_symop_operation_xyz
  'x, y, z'

loop_
  _atom_site_type_symbol
  _atom_site_label
  _atom_site_symmetry_multiplicity
  _atom_site_fract_x
  _atom_site_fract_y
  _atom_site_fract_z
  _atom_site_occupancy
  Ag  Ag1       1.0  0.89056  0.11834  0.55136  1.0000
  Ag  Ag2       1.0  0.77100  0.88137  0.94881  1.0000
  Ag  Ag3       1.0  0.10946  0.88166  0.44864  1.0000
  Ag  Ag4       1.0  0.22902  0.11864  0.05120  1.0000
  H   H1        1.0  0.95532  0.64714  0.51975  1.0000
  H   H2        1.0  0.30293  0.35122  0.98000  1.0000
  H   H3        1.0  0.04471  0.35287  0.48025  1.0000
  H   H4        1.0  0.69703  0.64876  0.01999  1.0000
  H   H5        1.0  0.77646  0.49777  0.60212  1.0000
  H   H6        1.0  0.27574  0.50207  0.89810  1.0000
  H   H7        1.0  0.22355  0.50224  0.39788  1.0000
  H   H8        1.0  0.72425  0.49792  0.10190  1.0000
  H   H9        1.0  0.45458  0.81614  0.73889  1.0000
  H   H10       1.0  0.63741  0.18564  0.76107  1.0000
  H   H11       1.0  0.54542  0.18385  0.26111  1.0000
  H   H12       1.0  0.36259  0.81436  0.23893  1.0000
  H   H13       1.0  0.66041  0.98077  0.66292  1.0000
  H   H14       1.0  0.67398  0.01928  0.83644  1.0000
  H   H15       1.0  0.33961  0.01923  0.33709  1.0000
  H   H16       1.0  0.32602  0.98072  0.16356  1.0000
  H   H17       1.0  0.03290  0.59543  0.70523  1.0000
  H   H18       1.0  0.43621  0.40610  0.79506  1.0000
  H   H19       1.0  0.96709  0.40457  0.29477  1.0000
  H   H20       1.0  0.56378  0.59390  0.20494  1.0000
  C   C1        1.0  0.32485  0.82777  0.58451  1.0000
  C   C2        1.0  0.48994  0.17096  0.91495  1.0000
  C   C3        1.0  0.67514  0.17224  0.41550  1.0000
  C   C4        1.0  0.51004  0.82903  0.08504  1.0000
  C   C5        1.0  0.07282  0.68713  0.56774  1.0000
  C   C6        1.0  0.38095  0.31185  0.93203  1.0000
  C   C7        1.0  0.92719  0.31289  0.43226  1.0000
  C   C8        1.0  0.61903  0.68814  0.06797  1.0000
  C   C9        1.0  0.97246  0.60437  0.61174  1.0000
  C   C10       1.0  0.36501  0.39554  0.88833  1.0000
  C   C11       1.0  0.02755  0.39563  0.38826  1.0000
  C   C12       1.0  0.63496  0.60446  0.11167  1.0000
  C   C13       1.0  0.35448  0.78763  0.69005  1.0000
  C   C14       1.0  0.56431  0.21335  0.80982  1.0000
  C   C15       1.0  0.64552  0.21237  0.30996  1.0000
  C   C16       1.0  0.43568  0.78666  0.19017  1.0000
  C   C17       1.0  0.46381  0.87524  0.64825  1.0000
  C   C18       1.0  0.58347  0.12474  0.85130  1.0000
  C   C19       1.0  0.53620  0.12476  0.35175  1.0000
  C   C20       1.0  0.41651  0.87526  0.14869  1.0000
  N   N1        1.0  0.11218  0.65536  0.67170  1.0000
  N   N2        1.0  0.45470  0.34551  0.82838  1.0000
  N   N3        1.0  0.88782  0.34463  0.32830  1.0000
  N   N4        1.0  0.54529  0.65448  0.17162  1.0000
  N   N5        1.0  0.32597  0.29975  0.66506  1.0000
  N   N6        1.0  0.02747  0.70156  0.83523  1.0000
  N   N7        1.0  0.67407  0.70025  0.33494  1.0000
  N   N8        1.0  0.97252  0.29844  0.16477  1.0000
  O   O1        1.0  0.42319  0.90840  0.54390  1.0000
  O   O2        1.0  0.50332  0.08885  0.95512  1.0000
  O   O3        1.0  0.57679  0.09162  0.45611  1.0000
  O   O4        1.0  0.49664  0.91113  0.04487  1.0000
  O   O5        1.0  0.34617  0.29790  0.60550  1.0000
  O   O6        1.0  0.04835  0.70222  0.89470  1.0000
  O   O7        1.0  0.65389  0.70210  0.39450  1.0000
  O   O8        1.0  0.95162  0.29778  0.10530  1.0000
  O   O9        1.0  0.10585  0.19776  0.68244  1.0000
  O   O10       1.0  0.91035  0.80408  0.81813  1.0000
  O   O11       1.0  0.89417  0.80224  0.31755  1.0000
  O   O12       1.0  0.08966  0.19592  0.18187  1.0000
  O   O13       1.0  0.53138  0.40472  0.70330  1.0000
  O   O14       1.0  0.12818  0.59725  0.79677  1.0000
  O   O15       1.0  0.46864  0.59527  0.29670  1.0000
  O   O16       1.0  0.87182  0.40275  0.20324  1.0000
