data_image0
_chemical_formula_structural       MnH22C38S2N4O8
_chemical_formula_sum              "Mn1 H22 C38 S2 N4 O8"
_cell_length_a       8.7657
_cell_length_b       9.40896
_cell_length_c       10.7181
_cell_angle_alpha    105.855
_cell_angle_beta     104.013
_cell_angle_gamma    92.8191

_space_group_name_H-M_alt    "P 1"
_space_group_IT_number       1

loop_
  _space_group_symop_operation_xyz
  'x, y, z'

loop_
  _atom_site_type_symbol
  _atom_site_label
  _atom_site_symmetry_multiplicity
  _atom_site_fract_x
  _atom_site_fract_y
  _atom_site_fract_z
  _atom_site_occupancy
  Mn  Mn1       1.0  0.50000  0.50000  0.50000  1.0000
  H   H1        1.0  0.57612  0.06352  0.14756  1.0000
  H   H2        1.0  0.42388  0.93648  0.85244  1.0000
  H   H3        1.0  0.77230  0.07157  0.01411  1.0000
  H   H4        1.0  0.22770  0.92843  0.98589  1.0000
  H   H5        1.0  0.79791  0.29067  0.92675  1.0000
  H   H6        1.0  0.20209  0.70933  0.07325  1.0000
  H   H7        1.0  0.46543  0.82866  0.43498  1.0000
  H   H8        1.0  0.53457  0.17134  0.56502  1.0000
  H   H9        1.0  0.56865  0.97001  0.30439  1.0000
  H   H10       1.0  0.43135  0.02999  0.69561  1.0000
  H   H11       1.0  0.79195  0.87720  0.20272  1.0000
  H   H12       1.0  0.20805  0.12281  0.79728  1.0000
  H   H13       1.0  0.97872  0.68817  0.17017  1.0000
  H   H14       1.0  0.02129  0.31184  0.82983  1.0000
  H   H15       1.0  0.07851  0.45674  0.20713  1.0000
  H   H16       1.0  0.92149  0.54327  0.79287  1.0000
  H   H17       1.0  0.05994  0.24397  0.29826  1.0000
  H   H18       1.0  0.94007  0.75603  0.70174  1.0000
  H   H19       1.0  0.93511  0.11774  0.43560  1.0000
  H   H20       1.0  0.06489  0.88226  0.56440  1.0000
  H   H21       1.0  0.71688  0.22766  0.52366  1.0000
  H   H22       1.0  0.28312  0.77234  0.47634  1.0000
  C   C1        1.0  0.36552  0.48279  0.05428  1.0000
  C   C2        1.0  0.63447  0.51720  0.94573  1.0000
  C   C3        1.0  0.48235  0.37422  0.05677  1.0000
  C   C4        1.0  0.51765  0.62578  0.94323  1.0000
  C   C5        1.0  0.47569  0.25653  0.11500  1.0000
  C   C6        1.0  0.52431  0.74347  0.88500  1.0000
  C   C7        1.0  0.58252  0.15178  0.10091  1.0000
  C   C8        1.0  0.41748  0.84822  0.89909  1.0000
  C   C9        1.0  0.69459  0.15832  0.02892  1.0000
  C   C10       1.0  0.30541  0.84168  0.97109  1.0000
  C   C11       1.0  0.70710  0.27749  0.97770  1.0000
  C   C12       1.0  0.29290  0.72251  0.02230  1.0000
  C   C13       1.0  0.60396  0.38609  0.99316  1.0000
  C   C14       1.0  0.39604  0.61391  0.00684  1.0000
  C   C15       1.0  0.72706  0.60951  0.35140  1.0000
  C   C16       1.0  0.27294  0.39049  0.64860  1.0000
  C   C17       1.0  0.55761  0.78729  0.38756  1.0000
  C   C18       1.0  0.44239  0.21271  0.61244  1.0000
  C   C19       1.0  0.62012  0.86976  0.31615  1.0000
  C   C20       1.0  0.37988  0.13024  0.68385  1.0000
  C   C21       1.0  0.74133  0.81850  0.26111  1.0000
  C   C22       1.0  0.25867  0.18150  0.73890  1.0000
  C   C23       1.0  0.80026  0.68652  0.27934  1.0000
  C   C24       1.0  0.19974  0.31349  0.72066  1.0000
  C   C25       1.0  0.92770  0.62886  0.22772  1.0000
  C   C26       1.0  0.07231  0.37114  0.77228  1.0000
  C   C27       1.0  0.98169  0.50075  0.24679  1.0000
  C   C28       1.0  0.01832  0.49925  0.75321  1.0000
  C   C29       1.0  0.91178  0.42138  0.31955  1.0000
  C   C30       1.0  0.08823  0.57863  0.68045  1.0000
  C   C31       1.0  0.96536  0.28865  0.34103  1.0000
  C   C32       1.0  0.03464  0.71135  0.65896  1.0000
  C   C33       1.0  0.89576  0.21890  0.41474  1.0000
  C   C34       1.0  0.10424  0.78109  0.58526  1.0000
  C   C35       1.0  0.77166  0.28043  0.46404  1.0000
  C   C36       1.0  0.22834  0.71957  0.53596  1.0000
  C   C37       1.0  0.78432  0.47440  0.37201  1.0000
  C   C38       1.0  0.21569  0.52560  0.62799  1.0000
  S   S1        1.0  0.34191  0.23023  0.21442  1.0000
  S   S2        1.0  0.65808  0.76977  0.78558  1.0000
  N   N1        1.0  0.60614  0.65990  0.40344  1.0000
  N   N2        1.0  0.39386  0.34010  0.59656  1.0000
  N   N3        1.0  0.71503  0.40280  0.44254  1.0000
  N   N4        1.0  0.28498  0.59720  0.55746  1.0000
  O   O1        1.0  0.34485  0.38040  0.30898  1.0000
  O   O2        1.0  0.65514  0.61959  0.69103  1.0000
  O   O3        1.0  0.18622  0.17147  0.12206  1.0000
  O   O4        1.0  0.81377  0.82853  0.87794  1.0000
  O   O5        1.0  0.41310  0.12865  0.28736  1.0000
  O   O6        1.0  0.58688  0.87133  0.71263  1.0000
  O   O7        1.0  0.23911  0.46316  0.08209  1.0000
  O   O8        1.0  0.76089  0.53684  0.91792  1.0000
