data_image0
_chemical_formula_structural       Na2H20C14S2N2Cl2O7
_chemical_formula_sum              "Na2 H20 C14 S2 N2 Cl2 O7"
_cell_length_a       6.264
_cell_length_b       6.26405
_cell_length_c       14.9268
_cell_angle_alpha    80.7065
_cell_angle_beta     80.7075
_cell_angle_gamma    62.0412

_space_group_name_H-M_alt    "P 1"
_space_group_IT_number       1

loop_
  _space_group_symop_operation_xyz
  'x, y, z'

loop_
  _atom_site_type_symbol
  _atom_site_label
  _atom_site_symmetry_multiplicity
  _atom_site_fract_x
  _atom_site_fract_y
  _atom_site_fract_z
  _atom_site_occupancy
  Na  Na1       1.0  0.36201  0.92351  0.52630  1.0000
  Na  Na2       1.0  0.07651  0.63800  0.47370  1.0000
  H   H1        1.0  0.66869  0.82993  0.36560  1.0000
  H   H2        1.0  0.17009  0.33129  0.63440  1.0000
  H   H3        1.0  0.69974  0.05394  0.38293  1.0000
  H   H4        1.0  0.94608  0.30027  0.61707  1.0000
  H   H5        1.0  0.57203  0.39236  0.55339  1.0000
  H   H6        1.0  0.60765  0.42798  0.44662  1.0000
  H   H7        1.0  0.10575  0.75865  0.96301  1.0000
  H   H8        1.0  0.24133  0.89426  0.03700  1.0000
  H   H9        1.0  0.89731  0.50957  0.02900  1.0000
  H   H10       1.0  0.49041  0.10269  0.97101  1.0000
  H   H11       1.0  0.65319  0.43405  0.93062  1.0000
  H   H12       1.0  0.56586  0.34689  0.06936  1.0000
  H   H13       1.0  0.61642  0.62084  0.77119  1.0000
  H   H14       1.0  0.37905  0.38368  0.22880  1.0000
  H   H15       1.0  0.97212  0.18056  0.77810  1.0000
  H   H16       1.0  0.81940  0.02792  0.22190  1.0000
  H   H17       1.0  0.22737  0.92783  0.73454  1.0000
  H   H18       1.0  0.07214  0.77265  0.26546  1.0000
  H   H19       1.0  0.21020  0.99202  0.84781  1.0000
  H   H20       1.0  0.00795  0.78983  0.15219  1.0000
  C   C1        1.0  0.83705  0.79538  0.77807  1.0000
  C   C2        1.0  0.20456  0.16300  0.22193  1.0000
  C   C3        1.0  0.97844  0.83809  0.83099  1.0000
  C   C4        1.0  0.16187  0.02159  0.16901  1.0000
  C   C5        1.0  0.99671  0.72914  0.92103  1.0000
  C   C6        1.0  0.27083  0.00330  0.07898  1.0000
  C   C7        1.0  0.88026  0.58732  0.95816  1.0000
  C   C8        1.0  0.41263  0.11978  0.04185  1.0000
  C   C9        1.0  0.74349  0.54674  0.90414  1.0000
  C   C10       1.0  0.45317  0.25659  0.09585  1.0000
  C   C11       1.0  0.72243  0.65087  0.81416  1.0000
  C   C12       1.0  0.34905  0.27765  0.18583  1.0000
  C   C13       1.0  0.10415  0.99221  0.79617  1.0000
  C   C14       1.0  0.00775  0.89588  0.20383  1.0000
  S   S1        1.0  0.78842  0.92947  0.66320  1.0000
  S   S2        1.0  0.07050  0.21165  0.33680  1.0000
  N   N1        1.0  0.69534  0.21692  0.66074  1.0000
  N   N2        1.0  0.78305  0.30469  0.33926  1.0000
  Cl  Cl1       1.0  0.42643  0.34756  0.73308  1.0000
  Cl  Cl2       1.0  0.65238  0.57360  0.26692  1.0000
  O   O1        1.0  0.61660  0.86071  0.63648  1.0000
  O   O2        1.0  0.13926  0.38344  0.36352  1.0000
  O   O3        1.0  0.02158  0.84849  0.60664  1.0000
  O   O4        1.0  0.15150  0.97845  0.39336  1.0000
  O   O5        1.0  0.68608  0.90752  0.41399  1.0000
  O   O6        1.0  0.09250  0.31391  0.58601  1.0000
  O   O7        1.0  0.49526  0.50474  0.50000  1.0000
