data_image0
_chemical_formula_structural       K2H16C12N10O4
_chemical_formula_sum              "K2 H16 C12 N10 O4"
_cell_length_a       7.19448
_cell_length_b       8.65008
_cell_length_c       8.64997
_cell_angle_alpha    91.1174
_cell_angle_beta     71.9214
_cell_angle_gamma    71.9213

_space_group_name_H-M_alt    "P 1"
_space_group_IT_number       1

loop_
  _space_group_symop_operation_xyz
  'x, y, z'

loop_
  _atom_site_type_symbol
  _atom_site_label
  _atom_site_symmetry_multiplicity
  _atom_site_fract_x
  _atom_site_fract_y
  _atom_site_fract_z
  _atom_site_occupancy
  K   K1        1.0  0.50000  0.50002  0.50000  1.0000
  K   K2        1.0  0.00001  0.49998  0.50002  1.0000
  H   H1        1.0  0.80449  0.70726  0.91131  1.0000
  H   H2        1.0  0.69551  0.08869  0.29274  1.0000
  H   H3        1.0  0.19551  0.29273  0.08869  1.0000
  H   H4        1.0  0.30449  0.91132  0.70726  1.0000
  H   H5        1.0  0.80386  0.51418  0.11980  1.0000
  H   H6        1.0  0.69615  0.88020  0.48583  1.0000
  H   H7        1.0  0.19615  0.48582  0.88020  1.0000
  H   H8        1.0  0.30386  0.11980  0.51417  1.0000
  H   H9        1.0  0.01644  0.83198  0.65415  1.0000
  H   H10       1.0  0.48355  0.34585  0.16803  1.0000
  H   H11       1.0  0.98356  0.16803  0.34585  1.0000
  H   H12       1.0  0.51644  0.65415  0.83198  1.0000
  H   H13       1.0  0.14988  0.80531  0.46484  1.0000
  H   H14       1.0  0.35010  0.53516  0.19469  1.0000
  H   H15       1.0  0.85011  0.19469  0.53516  1.0000
  H   H16       1.0  0.64988  0.46483  0.80532  1.0000
  C   C1        1.0  0.75000  0.03360  0.96641  1.0000
  C   C2        1.0  0.25000  0.96640  0.03359  1.0000
  C   C3        1.0  0.75000  0.91545  0.08455  1.0000
  C   C4        1.0  0.25000  0.08455  0.91545  1.0000
  C   C5        1.0  0.78313  0.75041  0.03686  1.0000
  C   C6        1.0  0.71687  0.96314  0.24960  1.0000
  C   C7        1.0  0.21688  0.24959  0.96314  1.0000
  C   C8        1.0  0.28313  0.03686  0.75040  1.0000
  C   C9        1.0  0.78112  0.64272  0.15413  1.0000
  C   C10       1.0  0.71889  0.84587  0.35728  1.0000
  C   C11       1.0  0.21888  0.35727  0.84587  1.0000
  C   C12       1.0  0.28112  0.15413  0.64272  1.0000
  N   N1        1.0  0.81867  0.99410  0.80190  1.0000
  N   N2        1.0  0.68132  0.19810  0.00591  1.0000
  N   N3        1.0  0.18133  0.00590  0.19810  1.0000
  N   N4        1.0  0.31867  0.80190  0.99409  1.0000
  N   N5        1.0  0.79110  0.13716  0.74095  1.0000
  N   N6        1.0  0.70889  0.25905  0.86284  1.0000
  N   N7        1.0  0.20889  0.86284  0.25905  1.0000
  N   N8        1.0  0.29111  0.74095  0.13716  1.0000
  N   N9        1.0  0.75001  0.68726  0.31274  1.0000
  N   N10       1.0  0.25001  0.31274  0.68726  1.0000
  O   O1        1.0  0.13157  0.74981  0.56581  1.0000
  O   O2        1.0  0.36841  0.43419  0.25019  1.0000
  O   O3        1.0  0.86842  0.25019  0.43419  1.0000
  O   O4        1.0  0.63158  0.56581  0.74981  1.0000
