data_image0
_chemical_formula_structural       Li4H24C24N4O16
_chemical_formula_sum              "Li4 H24 C24 N4 O16"
_cell_length_a       8.11125
_cell_length_b       8.43953
_cell_length_c       9.9902
_cell_angle_alpha    90.0004
_cell_angle_beta     90.0003
_cell_angle_gamma    90.5586

_space_group_name_H-M_alt    "P 1"
_space_group_IT_number       1

loop_
  _space_group_symop_operation_xyz
  'x, y, z'

loop_
  _atom_site_type_symbol
  _atom_site_label
  _atom_site_symmetry_multiplicity
  _atom_site_fract_x
  _atom_site_fract_y
  _atom_site_fract_z
  _atom_site_occupancy
  Li  Li1       1.0  0.93839  0.40955  0.39916  1.0000
  Li  Li2       1.0  0.56162  0.59044  0.89916  1.0000
  Li  Li3       1.0  0.06162  0.59045  0.60084  1.0000
  Li  Li4       1.0  0.43838  0.40956  0.10084  1.0000
  H   H1        1.0  0.87693  0.10808  0.42498  1.0000
  H   H2        1.0  0.62307  0.89192  0.92498  1.0000
  H   H3        1.0  0.12307  0.89192  0.57502  1.0000
  H   H4        1.0  0.37693  0.10808  0.07502  1.0000
  H   H5        1.0  0.06764  0.13397  0.41521  1.0000
  H   H6        1.0  0.43236  0.86602  0.91522  1.0000
  H   H7        1.0  0.93236  0.86603  0.58479  1.0000
  H   H8        1.0  0.56764  0.13397  0.08478  1.0000
  H   H9        1.0  0.31826  0.05959  0.72540  1.0000
  H   H10       1.0  0.18175  0.94040  0.22540  1.0000
  H   H11       1.0  0.68175  0.94041  0.27460  1.0000
  H   H12       1.0  0.81825  0.05960  0.77460  1.0000
  H   H13       1.0  0.40213  0.19278  0.32997  1.0000
  H   H14       1.0  0.09786  0.80721  0.82997  1.0000
  H   H15       1.0  0.59787  0.80722  0.67003  1.0000
  H   H16       1.0  0.90213  0.19279  0.17003  1.0000
  H   H17       1.0  0.62797  0.37980  0.39614  1.0000
  H   H18       1.0  0.87202  0.62020  0.89614  1.0000
  H   H19       1.0  0.37203  0.62020  0.60386  1.0000
  H   H20       1.0  0.12798  0.37980  0.10386  1.0000
  H   H21       1.0  0.53733  0.24786  0.80834  1.0000
  H   H22       1.0  0.96268  0.75214  0.30834  1.0000
  H   H23       1.0  0.46267  0.75215  0.19166  1.0000
  H   H24       1.0  0.03732  0.24786  0.69166  1.0000
  C   C1        1.0  0.39073  0.13467  0.65876  1.0000
  C   C2        1.0  0.10928  0.86532  0.15876  1.0000
  C   C3        1.0  0.60928  0.86533  0.34124  1.0000
  C   C4        1.0  0.89072  0.13468  0.84124  1.0000
  C   C5        1.0  0.60171  0.33009  0.60900  1.0000
  C   C6        1.0  0.89829  0.66990  0.10901  1.0000
  C   C7        1.0  0.39829  0.66991  0.39100  1.0000
  C   C8        1.0  0.10171  0.33009  0.89099  1.0000
  C   C9        1.0  0.43764  0.21083  0.43403  1.0000
  C   C10       1.0  0.06236  0.78916  0.93403  1.0000
  C   C11       1.0  0.56236  0.78917  0.56597  1.0000
  C   C12       1.0  0.93764  0.21083  0.06597  1.0000
  C   C13       1.0  0.56301  0.31219  0.47342  1.0000
  C   C14       1.0  0.93699  0.68780  0.97342  1.0000
  C   C15       1.0  0.43700  0.68781  0.52658  1.0000
  C   C16       1.0  0.06301  0.31219  0.02658  1.0000
  C   C17       1.0  0.73039  0.44888  0.65339  1.0000
  C   C18       1.0  0.76960  0.55111  0.15338  1.0000
  C   C19       1.0  0.26961  0.55112  0.34661  1.0000
  C   C20       1.0  0.23040  0.44888  0.84662  1.0000
  C   C21       1.0  0.51319  0.23814  0.70145  1.0000
  C   C22       1.0  0.98681  0.76186  0.20145  1.0000
  C   C23       1.0  0.48682  0.76187  0.29854  1.0000
  C   C24       1.0  0.01319  0.23814  0.79855  1.0000
  N   N1        1.0  0.35180  0.12457  0.52609  1.0000
  N   N2        1.0  0.14820  0.87542  0.02609  1.0000
  N   N3        1.0  0.64821  0.87543  0.47391  1.0000
  N   N4        1.0  0.85179  0.12458  0.97391  1.0000
  O   O1        1.0  0.85064  0.47687  0.57427  1.0000
  O   O2        1.0  0.64937  0.52312  0.07427  1.0000
  O   O3        1.0  0.14936  0.52314  0.42573  1.0000
  O   O4        1.0  0.35063  0.47688  0.92573  1.0000
  O   O5        1.0  0.96145  0.18153  0.38694  1.0000
  O   O6        1.0  0.53856  0.81846  0.88694  1.0000
  O   O7        1.0  0.03856  0.81847  0.61306  1.0000
  O   O8        1.0  0.46144  0.18154  0.11306  1.0000
  O   O9        1.0  0.70950  0.51380  0.76578  1.0000
  O   O10       1.0  0.79050  0.48620  0.26580  1.0000
  O   O11       1.0  0.29050  0.48621  0.23422  1.0000
  O   O12       1.0  0.20950  0.51380  0.73420  1.0000
  O   O13       1.0  0.23112  0.03051  0.48414  1.0000
  O   O14       1.0  0.26888  0.96948  0.98414  1.0000
  O   O15       1.0  0.76888  0.96949  0.51586  1.0000
  O   O16       1.0  0.73112  0.03052  0.01586  1.0000
