data_image0
_chemical_formula_structural       Ca2H24C24N4O16
_chemical_formula_sum              "Ca2 H24 C24 N4 O16"
_cell_length_a       7.8437
_cell_length_b       8.8787
_cell_length_c       9.8971
_cell_angle_alpha    90.0001
_cell_angle_beta     90.0005
_cell_angle_gamma    95.1353

_space_group_name_H-M_alt    "P 1"
_space_group_IT_number       1

loop_
  _space_group_symop_operation_xyz
  'x, y, z'

loop_
  _atom_site_type_symbol
  _atom_site_label
  _atom_site_symmetry_multiplicity
  _atom_site_fract_x
  _atom_site_fract_y
  _atom_site_fract_z
  _atom_site_occupancy
  Ca  Ca1       1.0  0.50000  1.00000  0.50000  1.0000
  Ca  Ca2       1.0  0.50000  0.50000  0.00000  1.0000
  H   H1        1.0  0.11930  0.88928  0.48409  1.0000
  H   H2        1.0  0.88070  0.61072  0.98409  1.0000
  H   H3        1.0  0.88070  0.11072  0.51591  1.0000
  H   H4        1.0  0.11930  0.38928  0.01591  1.0000
  H   H5        1.0  0.14711  0.05578  0.42388  1.0000
  H   H6        1.0  0.85289  0.44422  0.92388  1.0000
  H   H7        1.0  0.85289  0.94422  0.57612  1.0000
  H   H8        1.0  0.14711  0.55578  0.07612  1.0000
  H   H9        1.0  0.01326  0.25864  0.67064  1.0000
  H   H10       1.0  0.98674  0.24136  0.17064  1.0000
  H   H11       1.0  0.98674  0.74136  0.32936  1.0000
  H   H12       1.0  0.01326  0.75864  0.82936  1.0000
  H   H13       1.0  0.22372  0.41837  0.30649  1.0000
  H   H14       1.0  0.77628  0.08162  0.80648  1.0000
  H   H15       1.0  0.77628  0.58163  0.69351  1.0000
  H   H16       1.0  0.22373  0.91838  0.19351  1.0000
  H   H17       1.0  0.17856  0.46466  0.80043  1.0000
  H   H18       1.0  0.82145  0.03534  0.30042  1.0000
  H   H19       1.0  0.82145  0.53534  0.19957  1.0000
  H   H20       1.0  0.17855  0.96466  0.69958  1.0000
  H   H21       1.0  0.39395  0.63600  0.42351  1.0000
  H   H22       1.0  0.60605  0.86400  0.92351  1.0000
  H   H23       1.0  0.60605  0.36400  0.57648  1.0000
  H   H24       1.0  0.39395  0.13600  0.07649  1.0000
  C   C1        1.0  0.10026  0.34406  0.62201  1.0000
  C   C2        1.0  0.89975  0.15594  0.12201  1.0000
  C   C3        1.0  0.89974  0.65594  0.37799  1.0000
  C   C4        1.0  0.10025  0.84406  0.87799  1.0000
  C   C5        1.0  0.30205  0.56555  0.62317  1.0000
  C   C6        1.0  0.69795  0.93445  0.12317  1.0000
  C   C7        1.0  0.69795  0.43445  0.37683  1.0000
  C   C8        1.0  0.30204  0.06555  0.87683  1.0000
  C   C9        1.0  0.41206  0.68282  0.70201  1.0000
  C   C10       1.0  0.58794  0.81718  0.20201  1.0000
  C   C11       1.0  0.58794  0.31718  0.29799  1.0000
  C   C12       1.0  0.41206  0.18282  0.79800  1.0000
  C   C13       1.0  0.22011  0.43631  0.41536  1.0000
  C   C14       1.0  0.77989  0.06369  0.91536  1.0000
  C   C15       1.0  0.77989  0.56369  0.58464  1.0000
  C   C16       1.0  0.22011  0.93631  0.08464  1.0000
  C   C17       1.0  0.19183  0.45921  0.69137  1.0000
  C   C18       1.0  0.80817  0.04079  0.19137  1.0000
  C   C19       1.0  0.80817  0.54079  0.30863  1.0000
  C   C20       1.0  0.19183  0.95921  0.80863  1.0000
  C   C21       1.0  0.31160  0.55450  0.48217  1.0000
  C   C22       1.0  0.68839  0.94550  0.98217  1.0000
  C   C23       1.0  0.68840  0.44550  0.51783  1.0000
  C   C24       1.0  0.31161  0.05450  0.01783  1.0000
  N   N1        1.0  0.11815  0.33138  0.48583  1.0000
  N   N2        1.0  0.88185  0.16861  0.98583  1.0000
  N   N3        1.0  0.88185  0.66862  0.51417  1.0000
  N   N4        1.0  0.11815  0.83139  0.01417  1.0000
  O   O1        1.0  0.48065  0.79620  0.63863  1.0000
  O   O2        1.0  0.51935  0.70380  0.13863  1.0000
  O   O3        1.0  0.51936  0.20380  0.36137  1.0000
  O   O4        1.0  0.48065  0.29620  0.86137  1.0000
  O   O5        1.0  0.03521  0.21645  0.42064  1.0000
  O   O6        1.0  0.96479  0.28355  0.92064  1.0000
  O   O7        1.0  0.96479  0.78355  0.57936  1.0000
  O   O8        1.0  0.03521  0.71645  0.07936  1.0000
  O   O9        1.0  0.20305  0.95992  0.43399  1.0000
  O   O10       1.0  0.79695  0.54008  0.93399  1.0000
  O   O11       1.0  0.79695  0.04008  0.56601  1.0000
  O   O12       1.0  0.20305  0.45992  0.06601  1.0000
  O   O13       1.0  0.43040  0.65913  0.82720  1.0000
  O   O14       1.0  0.56960  0.84088  0.32720  1.0000
  O   O15       1.0  0.56960  0.34087  0.17280  1.0000
  O   O16       1.0  0.43040  0.15912  0.67280  1.0000
