data_image0
_chemical_formula_structural       Li4H16C24N4O12
_chemical_formula_sum              "Li4 H16 C24 N4 O12"
_cell_length_a       8.70704
_cell_length_b       9.0221
_cell_length_c       10.3236
_cell_angle_alpha    67.2657
_cell_angle_beta     65.0523
_cell_angle_gamma    61.1556

_space_group_name_H-M_alt    "P 1"
_space_group_IT_number       1

loop_
  _space_group_symop_operation_xyz
  'x, y, z'

loop_
  _atom_site_type_symbol
  _atom_site_label
  _atom_site_symmetry_multiplicity
  _atom_site_fract_x
  _atom_site_fract_y
  _atom_site_fract_z
  _atom_site_occupancy
  Li  Li1       1.0  0.11970  0.84141  0.55566  1.0000
  Li  Li2       1.0  0.01679  0.65860  0.94434  1.0000
  Li  Li3       1.0  0.88030  0.15858  0.44434  1.0000
  Li  Li4       1.0  0.98322  0.34140  0.05566  1.0000
  H   H1        1.0  0.31270  0.34189  0.11372  1.0000
  H   H2        1.0  0.26829  0.15813  0.38628  1.0000
  H   H3        1.0  0.68731  0.65810  0.88628  1.0000
  H   H4        1.0  0.73171  0.84187  0.61372  1.0000
  H   H5        1.0  0.71704  0.35709  0.60653  1.0000
  H   H6        1.0  0.18060  0.14296  0.89343  1.0000
  H   H7        1.0  0.28296  0.64291  0.39347  1.0000
  H   H8        1.0  0.81940  0.85704  0.10657  1.0000
  H   H9        1.0  0.45694  0.62422  0.68912  1.0000
  H   H10       1.0  0.27026  0.87582  0.81086  1.0000
  H   H11       1.0  0.54306  0.37577  0.31089  1.0000
  H   H12       1.0  0.72974  0.12418  0.18914  1.0000
  H   H13       1.0  0.56676  0.06059  0.04881  1.0000
  H   H14       1.0  0.17610  0.43949  0.45115  1.0000
  H   H15       1.0  0.43325  0.93941  0.95119  1.0000
  H   H16       1.0  0.82390  0.56051  0.54885  1.0000
  C   C1        1.0  0.41056  0.33374  0.00546  1.0000
  C   C2        1.0  0.24970  0.16632  0.49452  1.0000
  C   C3        1.0  0.58944  0.66625  0.99454  1.0000
  C   C4        1.0  0.75029  0.83368  0.50548  1.0000
  C   C5        1.0  0.66556  0.18533  0.82249  1.0000
  C   C6        1.0  0.17331  0.31474  0.67748  1.0000
  C   C7        1.0  0.33444  0.81467  0.17751  1.0000
  C   C8        1.0  0.82669  0.68525  0.32252  1.0000
  C   C9        1.0  0.82032  0.02172  0.77960  1.0000
  C   C10       1.0  0.12173  0.47830  0.72040  1.0000
  C   C11       1.0  0.17969  0.97828  0.22040  1.0000
  C   C12       1.0  0.87827  0.52170  0.27960  1.0000
  C   C13       1.0  0.63297  0.34596  0.72085  1.0000
  C   C14       1.0  0.19968  0.15411  0.77912  1.0000
  C   C15       1.0  0.36704  0.65404  0.27915  1.0000
  C   C16       1.0  0.80032  0.84589  0.22088  1.0000
  C   C17       1.0  0.49351  0.49546  0.76280  1.0000
  C   C18       1.0  0.25172  0.00459  0.73718  1.0000
  C   C19       1.0  0.50649  0.50453  0.23720  1.0000
  C   C20       1.0  0.74828  0.99541  0.26282  1.0000
  C   C21       1.0  0.54930  0.18264  0.96644  1.0000
  C   C22       1.0  0.19827  0.31746  0.53354  1.0000
  C   C23       1.0  0.45070  0.81736  0.03356  1.0000
  C   C24       1.0  0.80173  0.68254  0.46646  1.0000
  N   N1        1.0  0.38476  0.48903  0.90475  1.0000
  N   N2        1.0  0.27848  0.01103  0.59523  1.0000
  N   N3        1.0  0.61525  0.51097  0.09525  1.0000
  N   N4        1.0  0.72152  0.98897  0.40477  1.0000
  O   O1        1.0  0.90467  0.02840  0.64330  1.0000
  O   O2        1.0  0.07651  0.47158  0.85670  1.0000
  O   O3        1.0  0.09533  0.97160  0.35670  1.0000
  O   O4        1.0  0.92349  0.52842  0.14330  1.0000
  O   O5        1.0  0.85710  0.88806  0.88186  1.0000
  O   O6        1.0  0.12721  0.61195  0.61815  1.0000
  O   O7        1.0  0.14290  0.11194  0.11813  1.0000
  O   O8        1.0  0.87279  0.38805  0.38185  1.0000
  O   O9        1.0  0.25371  0.63175  0.94373  1.0000
  O   O10       1.0  0.32917  0.86828  0.55627  1.0000
  O   O11       1.0  0.74629  0.36824  0.05627  1.0000
  O   O12       1.0  0.67083  0.13172  0.44373  1.0000
