data_image0
_chemical_formula_structural       Ca2H16C24N4O12
_chemical_formula_sum              "Ca2 H16 C24 N4 O12"
_cell_length_a       7.04497
_cell_length_b       8.07727
_cell_length_c       10.8607
_cell_angle_alpha    90
_cell_angle_beta     90
_cell_angle_gamma    107.677

_space_group_name_H-M_alt    "P 1"
_space_group_IT_number       1

loop_
  _space_group_symop_operation_xyz
  'x, y, z'

loop_
  _atom_site_type_symbol
  _atom_site_label
  _atom_site_symmetry_multiplicity
  _atom_site_fract_x
  _atom_site_fract_y
  _atom_site_fract_z
  _atom_site_occupancy
  Ca  Ca1       1.0  0.00000  0.00000  0.00000  1.0000
  Ca  Ca2       1.0  1.00000  0.50000  0.50000  1.0000
  H   H1        1.0  0.56268  0.48948  0.66254  1.0000
  H   H2        1.0  0.43731  0.01052  0.16254  1.0000
  H   H3        1.0  0.43732  0.51052  0.33746  1.0000
  H   H4        1.0  0.56268  0.98948  0.83746  1.0000
  H   H5        1.0  0.89628  0.57932  0.00279  1.0000
  H   H6        1.0  0.10372  0.92068  0.50279  1.0000
  H   H7        1.0  0.10372  0.42068  0.99721  1.0000
  H   H8        1.0  0.89628  0.07932  0.49721  1.0000
  H   H9        1.0  0.30176  0.25034  0.77197  1.0000
  H   H10       1.0  0.69824  0.24966  0.27197  1.0000
  H   H11       1.0  0.69824  0.74966  0.22803  1.0000
  H   H12       1.0  0.30176  0.75034  0.72802  1.0000
  H   H13       1.0  0.64276  0.31308  0.08773  1.0000
  H   H14       1.0  0.35725  0.18692  0.58773  1.0000
  H   H15       1.0  0.35725  0.68692  0.91227  1.0000
  H   H16       1.0  0.64275  0.81308  0.41227  1.0000
  C   C1        1.0  0.58491  0.45895  0.75809  1.0000
  C   C2        1.0  0.41509  0.04105  0.25809  1.0000
  C   C3        1.0  0.41509  0.54105  0.24191  1.0000
  C   C4        1.0  0.58491  0.95895  0.74191  1.0000
  C   C5        1.0  0.91668  0.69871  0.76454  1.0000
  C   C6        1.0  0.08333  0.80129  0.26454  1.0000
  C   C7        1.0  0.08333  0.30129  0.23546  1.0000
  C   C8        1.0  0.91667  0.19871  0.73546  1.0000
  C   C9        1.0  0.75444  0.55355  0.82338  1.0000
  C   C10       1.0  0.24556  0.94645  0.32338  1.0000
  C   C11       1.0  0.24556  0.44645  0.17662  1.0000
  C   C12       1.0  0.75444  0.05355  0.67662  1.0000
  C   C13       1.0  0.77261  0.50540  0.94552  1.0000
  C   C14       1.0  0.22739  0.99460  0.44552  1.0000
  C   C15       1.0  0.22739  0.49460  0.05448  1.0000
  C   C16       1.0  0.77261  0.00540  0.55448  1.0000
  C   C17       1.0  0.44283  0.32228  0.81358  1.0000
  C   C18       1.0  0.55717  0.17772  0.31358  1.0000
  C   C19       1.0  0.55717  0.67772  0.18642  1.0000
  C   C20       1.0  0.44283  0.82228  0.68642  1.0000
  C   C21       1.0  0.63386  0.36238  0.99582  1.0000
  C   C22       1.0  0.36614  0.13762  0.49582  1.0000
  C   C23       1.0  0.36614  0.63762  0.00418  1.0000
  C   C24       1.0  0.63386  0.86238  0.50418  1.0000
  N   N1        1.0  0.47084  0.27099  0.93014  1.0000
  N   N2        1.0  0.52916  0.22901  0.43014  1.0000
  N   N3        1.0  0.52916  0.72901  0.06986  1.0000
  N   N4        1.0  0.47084  0.77099  0.56986  1.0000
  O   O1        1.0  0.02075  0.81808  0.83428  1.0000
  O   O2        1.0  0.97925  0.68192  0.33428  1.0000
  O   O3        1.0  0.97925  0.18192  0.16572  1.0000
  O   O4        1.0  0.02075  0.31808  0.66572  1.0000
  O   O5        1.0  0.34285  0.13510  0.97998  1.0000
  O   O6        1.0  0.65715  0.36490  0.47998  1.0000
  O   O7        1.0  0.65715  0.86490  0.02002  1.0000
  O   O8        1.0  0.34285  0.63510  0.52002  1.0000
  O   O9        1.0  0.94204  0.68907  0.64921  1.0000
  O   O10       1.0  0.05796  0.81093  0.14921  1.0000
  O   O11       1.0  0.05796  0.31093  0.35079  1.0000
  O   O12       1.0  0.94204  0.18907  0.85080  1.0000
