data_image0
_chemical_formula_structural       Ag2H38C46S2N4O8
_chemical_formula_sum              "Ag2 H38 C46 S2 N4 O8"
_cell_length_a       7.25598
_cell_length_b       10.8777
_cell_length_c       13.1908
_cell_angle_alpha    103.133
_cell_angle_beta     104.606
_cell_angle_gamma    93.7058

_space_group_name_H-M_alt    "P 1"
_space_group_IT_number       1

loop_
  _space_group_symop_operation_xyz
  'x, y, z'

loop_
  _atom_site_type_symbol
  _atom_site_label
  _atom_site_symmetry_multiplicity
  _atom_site_fract_x
  _atom_site_fract_y
  _atom_site_fract_z
  _atom_site_occupancy
  Ag  Ag1       1.0  0.32294  0.04573  0.51976  1.0000
  Ag  Ag2       1.0  0.67704  0.95428  0.48023  1.0000
  H   H1        1.0  0.99599  0.77895  0.13831  1.0000
  H   H2        1.0  0.00402  0.22106  0.86170  1.0000
  H   H3        1.0  0.81722  0.81994  0.20356  1.0000
  H   H4        1.0  0.18278  0.18006  0.79644  1.0000
  H   H5        1.0  0.72084  0.83866  0.01353  1.0000
  H   H6        1.0  0.27917  0.16133  0.98647  1.0000
  H   H7        1.0  0.56157  0.71968  0.03017  1.0000
  H   H8        1.0  0.43844  0.28032  0.96984  1.0000
  H   H9        1.0  0.65423  0.64731  0.86096  1.0000
  H   H10       1.0  0.34577  0.35269  0.13904  1.0000
  H   H11       1.0  0.89960  0.67618  0.93219  1.0000
  H   H12       1.0  0.10041  0.32382  0.06781  1.0000
  H   H13       1.0  0.08412  0.83960  0.32682  1.0000
  H   H14       1.0  0.91586  0.16040  0.67318  1.0000
  H   H15       1.0  0.15794  0.90227  0.65597  1.0000
  H   H16       1.0  0.84205  0.09774  0.34403  1.0000
  H   H17       1.0  0.95380  0.69781  0.63348  1.0000
  H   H18       1.0  0.04620  0.30219  0.36652  1.0000
  H   H19       1.0  0.82808  0.55134  0.44568  1.0000
  H   H20       1.0  0.17192  0.44866  0.55432  1.0000
  H   H21       1.0  0.83644  0.49710  0.26254  1.0000
  H   H22       1.0  0.16355  0.50290  0.73746  1.0000
  H   H23       1.0  0.52538  0.18802  0.74215  1.0000
  H   H24       1.0  0.47460  0.81199  0.25785  1.0000
  H   H25       1.0  0.48621  0.27865  0.44914  1.0000
  H   H26       1.0  0.51378  0.72135  0.55086  1.0000
  H   H27       1.0  0.66818  0.49518  0.54394  1.0000
  H   H28       1.0  0.33180  0.50482  0.45606  1.0000
  H   H29       1.0  0.77456  0.56211  0.74442  1.0000
  H   H30       1.0  0.22542  0.43789  0.25559  1.0000
  H   H31       1.0  0.69727  0.31854  0.90885  1.0000
  H   H32       1.0  0.30273  0.68145  0.09114  1.0000
  H   H33       1.0  0.98100  0.13065  0.20413  1.0000
  H   H34       1.0  0.01900  0.86936  0.79586  1.0000
  H   H35       1.0  0.47861  0.92119  0.08739  1.0000
  H   H36       1.0  0.52140  0.07882  0.91260  1.0000
  H   H37       1.0  0.34603  0.83416  0.88735  1.0000
  H   H38       1.0  0.65398  0.16585  0.11264  1.0000
  C   C1        1.0  0.78434  0.50194  0.07108  1.0000
  C   C2        1.0  0.21568  0.49805  0.92892  1.0000
  C   C3        1.0  0.83712  0.61929  0.16297  1.0000
  C   C4        1.0  0.16289  0.38071  0.83704  1.0000
  C   C5        1.0  0.84831  0.74766  0.13893  1.0000
  C   C6        1.0  0.15170  0.25234  0.86107  1.0000
  C   C7        1.0  0.71071  0.74423  0.02950  1.0000
  C   C8        1.0  0.28930  0.25577  0.97050  1.0000
  C   C9        1.0  0.75484  0.64697  0.93858  1.0000
  C   C10       1.0  0.24517  0.35303  0.06142  1.0000
  C   C11       1.0  0.74675  0.51597  0.95735  1.0000
  C   C12       1.0  0.25326  0.48403  0.04265  1.0000
  C   C13       1.0  0.93752  0.68400  0.36932  1.0000
  C   C14       1.0  0.06248  0.31600  0.63068  1.0000
  C   C15       1.0  0.04799  0.80270  0.39045  1.0000
  C   C16       1.0  0.95200  0.19731  0.60955  1.0000
  C   C17       1.0  0.09079  0.83898  0.57645  1.0000
  C   C18       1.0  0.90920  0.16102  0.42355  1.0000
  C   C19       1.0  0.98110  0.72342  0.56295  1.0000
  C   C20       1.0  0.01889  0.27659  0.43705  1.0000
  C   C21       1.0  0.90885  0.64451  0.45942  1.0000
  C   C22       1.0  0.09115  0.35549  0.54059  1.0000
  C   C23       1.0  0.86743  0.59706  0.26275  1.0000
  C   C24       1.0  0.13257  0.40293  0.73725  1.0000
  C   C25       1.0  0.65315  0.38208  0.76238  1.0000
  C   C26       1.0  0.34683  0.61792  0.23762  1.0000
  C   C27       1.0  0.55640  0.26096  0.70183  1.0000
  C   C28       1.0  0.44358  0.73904  0.29817  1.0000
  C   C29       1.0  0.53605  0.31040  0.53747  1.0000
  C   C30       1.0  0.46393  0.68960  0.46253  1.0000
  C   C31       1.0  0.63622  0.43069  0.59104  1.0000
  C   C32       1.0  0.36376  0.56932  0.40896  1.0000
  C   C33       1.0  0.69487  0.46829  0.70361  1.0000
  C   C34       1.0  0.30511  0.53171  0.29639  1.0000
  C   C35       1.0  0.70256  0.40455  0.87924  1.0000
  C   C36       1.0  0.29743  0.59545  0.12076  1.0000
  C   C37       1.0  0.92277  0.09393  0.11711  1.0000
  C   C38       1.0  0.07723  0.90607  0.88288  1.0000
  C   C39       1.0  0.03792  0.02518  0.05773  1.0000
  C   C40       1.0  0.96209  0.97482  0.94227  1.0000
  C   C41       1.0  0.22770  0.00299  0.10758  1.0000
  C   C42       1.0  0.77231  0.99701  0.89242  1.0000
  C   C43       1.0  0.33403  0.93467  0.04687  1.0000
  C   C44       1.0  0.66597  0.06533  0.95312  1.0000
  C   C45       1.0  0.25906  0.88657  0.93398  1.0000
  C   C46       1.0  0.74095  0.11343  0.06601  1.0000
  S   S1        1.0  0.33901  0.06547  0.25011  1.0000
  S   S2        1.0  0.66101  0.93452  0.74988  1.0000
  N   N1        1.0  0.12587  0.87602  0.49141  1.0000
  N   N2        1.0  0.87412  0.12398  0.50859  1.0000
  N   N3        1.0  0.49703  0.22664  0.59318  1.0000
  N   N4        1.0  0.50295  0.77336  0.40682  1.0000
  O   O1        1.0  0.77593  0.39469  0.08907  1.0000
  O   O2        1.0  0.22411  0.60531  0.91093  1.0000
  O   O3        1.0  0.21203  0.00973  0.30458  1.0000
  O   O4        1.0  0.78798  0.99027  0.69542  1.0000
  O   O5        1.0  0.34873  0.20478  0.27218  1.0000
  O   O6        1.0  0.65130  0.79521  0.72782  1.0000
  O   O7        1.0  0.52852  0.02035  0.26975  1.0000
  O   O8        1.0  0.47149  0.97963  0.73024  1.0000
