data_image0
_chemical_formula_structural       FeH24C34S2N6
_chemical_formula_sum              "Fe1 H24 C34 S2 N6"
_cell_length_a       7.7531
_cell_length_b       8.9463
_cell_length_c       11.2604
_cell_angle_alpha    98.2154
_cell_angle_beta     105.634
_cell_angle_gamma    105.055

_space_group_name_H-M_alt    "P 1"
_space_group_IT_number       1

loop_
  _space_group_symop_operation_xyz
  'x, y, z'

loop_
  _atom_site_type_symbol
  _atom_site_label
  _atom_site_symmetry_multiplicity
  _atom_site_fract_x
  _atom_site_fract_y
  _atom_site_fract_z
  _atom_site_occupancy
  Fe  Fe1       1.0  0.00144  0.49993  0.99958  1.0000
  H   H1        1.0  0.83204  0.20057  0.47474  1.0000
  H   H2        1.0  0.16797  0.79952  0.52524  1.0000
  H   H3        1.0  0.54886  0.26348  0.38731  1.0000
  H   H4        1.0  0.45109  0.73656  0.61290  1.0000
  H   H5        1.0  0.48105  0.25779  0.58709  1.0000
  H   H6        1.0  0.51886  0.74220  0.41310  1.0000
  H   H7        1.0  0.63344  0.27061  0.01927  1.0000
  H   H8        1.0  0.36579  0.72959  0.98054  1.0000
  H   H9        1.0  0.78690  0.03178  0.62568  1.0000
  H   H10       1.0  0.21309  0.96829  0.37430  1.0000
  H   H11       1.0  0.05012  0.41110  0.43978  1.0000
  H   H12       1.0  0.94959  0.58898  0.55982  1.0000
  H   H13       1.0  0.71998  0.76622  0.31158  1.0000
  H   H14       1.0  0.28015  0.23379  0.68898  1.0000
  H   H15       1.0  0.07102  0.01755  0.17949  1.0000
  H   H16       1.0  0.92875  0.98216  0.82053  1.0000
  H   H17       1.0  0.07288  0.18633  0.02355  1.0000
  H   H18       1.0  0.92777  0.81326  0.97648  1.0000
  H   H19       1.0  0.06967  0.56864  0.27703  1.0000
  H   H20       1.0  0.93067  0.43131  0.72251  1.0000
  H   H21       1.0  0.86488  0.76035  0.14243  1.0000
  H   H22       1.0  0.13444  0.23970  0.85757  1.0000
  H   H23       1.0  0.48334  0.25333  0.18609  1.0000
  H   H24       1.0  0.51658  0.74661  0.81426  1.0000
  C   C1        1.0  0.90842  0.11432  0.48713  1.0000
  C   C2        1.0  0.09159  0.88579  0.51285  1.0000
  C   C3        1.0  0.52741  0.36796  0.43631  1.0000
  C   C4        1.0  0.47251  0.63206  0.56393  1.0000
  C   C5        1.0  0.02471  0.09623  0.41299  1.0000
  C   C6        1.0  0.97528  0.90386  0.58698  1.0000
  C   C7        1.0  0.48734  0.36405  0.54908  1.0000
  C   C8        1.0  0.51257  0.63595  0.45115  1.0000
  C   C9        1.0  0.29266  0.80861  0.17391  1.0000
  C   C10       1.0  0.70806  0.19149  0.82611  1.0000
  C   C11       1.0  0.54117  0.50358  0.38510  1.0000
  C   C12       1.0  0.45873  0.49641  0.61514  1.0000
  C   C13       1.0  0.64831  0.37790  0.08567  1.0000
  C   C14       1.0  0.35086  0.62222  0.91427  1.0000
  C   C15       1.0  0.04729  0.19595  0.32182  1.0000
  C   C16       1.0  0.95265  0.80404  0.67806  1.0000
  C   C17       1.0  0.59600  0.50861  0.26995  1.0000
  C   C18       1.0  0.40382  0.49139  0.73026  1.0000
  C   C19       1.0  0.88364  0.01983  0.57277  1.0000
  C   C20       1.0  0.11636  0.98026  0.42721  1.0000
  C   C21       1.0  0.05154  0.35516  0.34776  1.0000
  C   C22       1.0  0.94838  0.64485  0.65191  1.0000
  C   C23       1.0  0.69549  0.65266  0.24943  1.0000
  C   C24       1.0  0.30433  0.34743  0.75092  1.0000
  C   C25       1.0  0.06490  0.13778  0.20450  1.0000
  C   C26       1.0  0.93506  0.86199  0.79544  1.0000
  C   C27       1.0  0.06919  0.23234  0.11725  1.0000
  C   C28       1.0  0.93130  0.76738  0.88269  1.0000
  C   C29       1.0  0.06356  0.44441  0.25788  1.0000
  C   C30       1.0  0.93678  0.55553  0.74174  1.0000
  C   C31       1.0  0.77547  0.65059  0.15308  1.0000
  C   C32       1.0  0.22379  0.34951  0.84699  1.0000
  C   C33       1.0  0.56510  0.36975  0.18027  1.0000
  C   C34       1.0  0.43456  0.63021  0.81994  1.0000
  S   S1        1.0  0.47243  0.96188  0.25569  1.0000
  S   S2        1.0  0.52770  0.03843  0.74473  1.0000
  N   N1        1.0  0.06272  0.38297  0.14051  1.0000
  N   N2        1.0  0.93831  0.61690  0.85929  1.0000
  N   N3        1.0  0.76006  0.51537  0.07518  1.0000
  N   N4        1.0  0.23829  0.48484  0.92458  1.0000
  N   N5        1.0  0.16257  0.69504  0.11312  1.0000
  N   N6        1.0  0.83865  0.30484  0.88657  1.0000
