data_image0
_chemical_formula_structural       Cu4H20C28N12O2
_chemical_formula_sum              "Cu4 H20 C28 N12 O2"
_cell_length_a       6.68282
_cell_length_b       8.57043
_cell_length_c       14.2333
_cell_angle_alpha    90.0014
_cell_angle_beta     105.213
_cell_angle_gamma    89.9996

_space_group_name_H-M_alt    "P 1"
_space_group_IT_number       1

loop_
  _space_group_symop_operation_xyz
  'x, y, z'

loop_
  _atom_site_type_symbol
  _atom_site_label
  _atom_site_symmetry_multiplicity
  _atom_site_fract_x
  _atom_site_fract_y
  _atom_site_fract_z
  _atom_site_occupancy
  Cu  Cu1       1.0  0.18461  0.82752  0.24152  1.0000
  Cu  Cu2       1.0  0.18461  0.17248  0.74152  1.0000
  Cu  Cu3       1.0  0.82670  0.33004  0.25846  1.0000
  Cu  Cu4       1.0  0.82671  0.66996  0.75846  1.0000
  H   H1        1.0  0.83511  0.85112  0.09556  1.0000
  H   H2        1.0  0.83512  0.14888  0.59556  1.0000
  H   H3        1.0  0.95422  0.81707  0.94554  1.0000
  H   H4        1.0  0.95422  0.18294  0.44554  1.0000
  H   H5        1.0  0.41434  0.58214  0.80504  1.0000
  H   H6        1.0  0.41433  0.41785  0.30505  1.0000
  H   H7        1.0  0.26497  0.61737  0.94594  1.0000
  H   H8        1.0  0.26496  0.38261  0.44595  1.0000
  H   H9        1.0  0.77221  0.69643  0.37820  1.0000
  H   H10       1.0  0.77219  0.30359  0.87821  1.0000
  H   H11       1.0  0.27976  0.91477  0.39714  1.0000
  H   H12       1.0  0.27976  0.08522  0.89713  1.0000
  H   H13       1.0  0.16998  0.92044  0.55254  1.0000
  H   H14       1.0  0.16996  0.07955  0.05254  1.0000
  H   H15       1.0  0.38460  0.78526  0.69803  1.0000
  H   H16       1.0  0.38458  0.21473  0.19804  1.0000
  H   H17       1.0  0.80207  0.63108  0.54778  1.0000
  H   H18       1.0  0.80203  0.36893  0.04779  1.0000
  H   H19       1.0  0.72816  0.71335  0.21905  1.0000
  H   H20       1.0  0.72816  0.28666  0.71905  1.0000
  C   C1        1.0  0.73640  0.79065  0.03289  1.0000
  C   C2        1.0  0.73640  0.20935  0.53289  1.0000
  C   C3        1.0  0.80390  0.77222  0.94922  1.0000
  C   C4        1.0  0.80390  0.22778  0.44923  1.0000
  C   C5        1.0  0.50227  0.64290  0.87015  1.0000
  C   C6        1.0  0.50226  0.35709  0.37016  1.0000
  C   C7        1.0  0.41987  0.66085  0.94941  1.0000
  C   C8        1.0  0.41987  0.33914  0.44942  1.0000
  C   C9        1.0  0.53947  0.73502  0.03314  1.0000
  C   C10       1.0  0.53947  0.26498  0.53314  1.0000
  C   C11       1.0  0.44783  0.76109  0.11590  1.0000
  C   C12       1.0  0.44783  0.23891  0.61590  1.0000
  C   C13       1.0  0.61863  0.74799  0.37106  1.0000
  C   C14       1.0  0.61862  0.25202  0.87106  1.0000
  C   C15       1.0  0.54772  0.76762  0.45843  1.0000
  C   C16       1.0  0.54771  0.23239  0.95844  1.0000
  C   C17       1.0  0.36839  0.85195  0.46137  1.0000
  C   C18       1.0  0.36838  0.14805  0.96137  1.0000
  C   C19       1.0  0.30695  0.85601  0.54724  1.0000
  C   C20       1.0  0.30693  0.14398  0.04724  1.0000
  C   C21       1.0  0.42749  0.78071  0.62933  1.0000
  C   C22       1.0  0.42747  0.21929  0.12933  1.0000
  C   C23       1.0  0.66000  0.69614  0.54521  1.0000
  C   C24       1.0  0.65997  0.30387  0.04521  1.0000
  C   C25       1.0  0.05310  0.64102  0.25895  1.0000
  C   C26       1.0  0.05312  0.35897  0.75895  1.0000
  C   C27       1.0  0.07484  0.02826  0.24637  1.0000
  C   C28       1.0  0.07485  0.97173  0.74638  1.0000
  N   N1        1.0  0.69064  0.69898  0.86867  1.0000
  N   N2        1.0  0.69063  0.30103  0.36867  1.0000
  N   N3        1.0  0.57936  0.75630  0.20723  1.0000
  N   N4        1.0  0.57936  0.24371  0.70723  1.0000
  N   N5        1.0  0.50026  0.78252  0.28513  1.0000
  N   N6        1.0  0.50025  0.21749  0.78514  1.0000
  N   N7        1.0  0.60330  0.70341  0.62902  1.0000
  N   N8        1.0  0.60328  0.29659  0.12902  1.0000
  N   N9        1.0  0.96104  0.52490  0.26306  1.0000
  N   N10       1.0  0.96104  0.47511  0.76306  1.0000
  N   N11       1.0  0.99613  0.14822  0.25538  1.0000
  N   N12       1.0  0.99615  0.85178  0.75539  1.0000
  O   O1        1.0  0.25869  0.78796  0.10190  1.0000
  O   O2        1.0  0.25870  0.21202  0.60190  1.0000
