data_image0
_chemical_formula_structural       Zn2H26C30N2O14
_chemical_formula_sum              "Zn2 H26 C30 N2 O14"
_cell_length_a       7.94282
_cell_length_b       10.3571
_cell_length_c       9.72023
_cell_angle_alpha    105.532
_cell_angle_beta     89.0204
_cell_angle_gamma    79.2475

_space_group_name_H-M_alt    "P 1"
_space_group_IT_number       1

loop_
  _space_group_symop_operation_xyz
  'x, y, z'

loop_
  _atom_site_type_symbol
  _atom_site_label
  _atom_site_symmetry_multiplicity
  _atom_site_fract_x
  _atom_site_fract_y
  _atom_site_fract_z
  _atom_site_occupancy
  Zn  Zn1       1.0  0.74477  0.47381  0.61047  1.0000
  Zn  Zn2       1.0  0.25523  0.52619  0.38953  1.0000
  H   H1        1.0  0.35591  0.85688  0.74173  1.0000
  H   H2        1.0  0.64408  0.14310  0.25826  1.0000
  H   H3        1.0  0.37813  0.26832  0.74101  1.0000
  H   H4        1.0  0.62187  0.73168  0.25899  1.0000
  H   H5        1.0  0.80907  0.94056  0.56124  1.0000
  H   H6        1.0  0.19092  0.05944  0.43876  1.0000
  H   H7        1.0  0.91166  0.02069  0.89669  1.0000
  H   H8        1.0  0.08833  0.97932  0.10330  1.0000
  H   H9        1.0  0.60551  0.05988  0.97248  1.0000
  H   H10       1.0  0.39448  0.94014  0.02750  1.0000
  H   H11       1.0  0.43793  0.29615  0.07345  1.0000
  H   H12       1.0  0.56206  0.70388  0.92654  1.0000
  H   H13       1.0  0.58430  0.49459  0.11142  1.0000
  H   H14       1.0  0.41570  0.50542  0.88859  1.0000
  H   H15       1.0  0.89250  0.45671  0.03235  1.0000
  H   H16       1.0  0.10751  0.54329  0.96766  1.0000
  H   H17       1.0  0.02998  0.54473  0.68387  1.0000
  H   H18       1.0  0.97003  0.45526  0.31612  1.0000
  H   H19       1.0  0.06480  0.39297  0.58958  1.0000
  H   H20       1.0  0.93520  0.60702  0.41041  1.0000
  H   H21       1.0  0.67436  0.36342  0.35102  1.0000
  H   H22       1.0  0.32564  0.63658  0.64898  1.0000
  H   H23       1.0  0.81944  0.27710  0.42030  1.0000
  H   H24       1.0  0.18056  0.72290  0.57971  1.0000
  H   H25       1.0  0.09767  0.03836  0.76415  1.0000
  H   H26       1.0  0.90232  0.96165  0.23585  1.0000
  C   C1        1.0  0.67439  0.73624  0.61231  1.0000
  C   C2        1.0  0.32561  0.26375  0.38768  1.0000
  C   C3        1.0  0.59124  0.88315  0.64869  1.0000
  C   C4        1.0  0.40875  0.11685  0.35132  1.0000
  C   C5        1.0  0.42489  0.92877  0.71416  1.0000
  C   C6        1.0  0.57511  0.07123  0.28584  1.0000
  C   C7        1.0  0.34660  0.06679  0.74588  1.0000
  C   C8        1.0  0.65340  0.93321  0.25412  1.0000
  C   C9        1.0  0.43721  0.16056  0.71571  1.0000
  C   C10       1.0  0.56279  0.83944  0.28429  1.0000
  C   C11       1.0  0.60369  0.11463  0.64920  1.0000
  C   C12       1.0  0.39631  0.88537  0.35080  1.0000
  C   C13       1.0  0.68066  0.97630  0.61475  1.0000
  C   C14       1.0  0.31934  0.02370  0.38526  1.0000
  C   C15       1.0  0.10671  0.22197  0.90992  1.0000
  C   C16       1.0  0.89330  0.77802  0.09009  1.0000
  C   C17       1.0  0.92280  0.23710  0.95700  1.0000
  C   C18       1.0  0.07721  0.76290  0.04301  1.0000
  C   C19       1.0  0.84134  0.12539  0.94192  1.0000
  C   C20       1.0  0.15866  0.87462  0.05809  1.0000
  C   C21       1.0  0.66845  0.14702  0.98663  1.0000
  C   C22       1.0  0.33156  0.85298  0.01337  1.0000
  C   C23       1.0  0.57495  0.27962  0.04578  1.0000
  C   C24       1.0  0.42505  0.72039  0.95422  1.0000
  C   C25       1.0  0.65658  0.39091  0.06440  1.0000
  C   C26       1.0  0.34343  0.60910  0.93561  1.0000
  C   C27       1.0  0.82974  0.36987  0.02053  1.0000
  C   C28       1.0  0.17026  0.63013  0.97948  1.0000
  C   C29       1.0  0.69563  0.21377  0.60820  1.0000
  C   C30       1.0  0.30437  0.78623  0.39180  1.0000
  N   N1        1.0  0.17482  0.10563  0.80328  1.0000
  N   N2        1.0  0.82518  0.89438  0.19673  1.0000
  O   O1        1.0  0.58632  0.65046  0.64013  1.0000
  O   O2        1.0  0.41368  0.34953  0.35988  1.0000
  O   O3        1.0  0.82708  0.69812  0.55901  1.0000
  O   O4        1.0  0.17291  0.30186  0.44097  1.0000
  O   O5        1.0  0.63477  0.34179  0.67030  1.0000
  O   O6        1.0  0.36525  0.65822  0.32971  1.0000
  O   O7        1.0  0.82063  0.16989  0.51435  1.0000
  O   O8        1.0  0.17937  0.83010  0.48565  1.0000
  O   O9        1.0  0.19220  0.30905  0.96395  1.0000
  O   O10       1.0  0.80781  0.69094  0.03606  1.0000
  O   O11       1.0  0.98691  0.45939  0.67066  1.0000
  O   O12       1.0  0.01309  0.54062  0.32933  1.0000
  O   O13       1.0  0.78728  0.36598  0.39101  1.0000
  O   O14       1.0  0.21271  0.63402  0.60899  1.0000
