data_image0
_chemical_formula_structural       Ni2H16C20S4N12
_chemical_formula_sum              "Ni2 H16 C20 S4 N12"
_cell_length_a       6.94708
_cell_length_b       7.22071
_cell_length_c       12.5369
_cell_angle_alpha    90.081
_cell_angle_beta     102.417
_cell_angle_gamma    90.101

_space_group_name_H-M_alt    "P 1"
_space_group_IT_number       1

loop_
  _space_group_symop_operation_xyz
  'x, y, z'

loop_
  _atom_site_type_symbol
  _atom_site_label
  _atom_site_symmetry_multiplicity
  _atom_site_fract_x
  _atom_site_fract_y
  _atom_site_fract_z
  _atom_site_occupancy
  Ni  Ni1       1.0  0.50001  0.50000  0.50000  1.0000
  Ni  Ni2       1.0  1.00000  1.00000  1.00000  1.0000
  H   H1        1.0  0.44607  0.16376  0.32731  1.0000
  H   H2        1.0  0.05258  0.66485  0.17258  1.0000
  H   H3        1.0  0.55393  0.83624  0.67270  1.0000
  H   H4        1.0  0.94741  0.33514  0.82741  1.0000
  H   H5        1.0  0.54705  0.18388  0.66562  1.0000
  H   H6        1.0  0.95192  0.68230  0.83424  1.0000
  H   H7        1.0  0.45295  0.81612  0.33439  1.0000
  H   H8        1.0  0.04807  0.31770  0.16575  1.0000
  H   H9        1.0  0.86359  0.68709  0.62626  1.0000
  H   H10       1.0  0.63649  0.18367  0.87212  1.0000
  H   H11       1.0  0.13641  0.31291  0.37375  1.0000
  H   H12       1.0  0.36350  0.81633  0.12787  1.0000
  H   H13       1.0  0.77705  0.30672  0.37064  1.0000
  H   H14       1.0  0.72351  0.81003  0.13049  1.0000
  H   H15       1.0  0.22296  0.69329  0.62936  1.0000
  H   H16       1.0  0.27648  0.18998  0.86951  1.0000
  C   C1        1.0  0.51531  0.53066  0.74547  1.0000
  C   C2        1.0  0.98435  0.03109  0.75261  1.0000
  C   C3        1.0  0.48468  0.46936  0.25452  1.0000
  C   C4        1.0  0.01563  0.96892  0.24738  1.0000
  C   C5        1.0  0.47084  0.09133  0.40518  1.0000
  C   C6        1.0  0.02842  0.59230  0.09465  1.0000
  C   C7        1.0  0.52917  0.90867  0.59482  1.0000
  C   C8        1.0  0.97157  0.40770  0.90535  1.0000
  C   C9        1.0  0.52551  0.10113  0.59149  1.0000
  C   C10       1.0  0.97391  0.60051  0.90854  1.0000
  C   C11       1.0  0.47449  0.89886  0.40852  1.0000
  C   C12       1.0  0.02608  0.39949  0.09145  1.0000
  C   C13       1.0  0.92417  0.60245  0.56977  1.0000
  C   C14       1.0  0.57560  0.10099  0.92938  1.0000
  C   C15       1.0  0.07585  0.39755  0.43023  1.0000
  C   C16       1.0  0.42442  0.89901  0.07062  1.0000
  C   C17       1.0  0.87504  0.39473  0.42863  1.0000
  C   C18       1.0  0.62489  0.89617  0.07197  1.0000
  C   C19       1.0  0.12497  0.60527  0.57137  1.0000
  C   C20       1.0  0.37512  0.10383  0.92803  1.0000
  S   S1        1.0  0.45019  0.57781  0.85831  1.0000
  S   S2        1.0  0.05073  0.07963  0.64038  1.0000
  S   S3        1.0  0.54980  0.42217  0.14169  1.0000
  S   S4        1.0  0.94927  0.92037  0.35962  1.0000
  N   N1        1.0  0.56760  0.49779  0.66266  1.0000
  N   N2        1.0  0.93245  0.99630  0.83524  1.0000
  N   N3        1.0  0.43241  0.50219  0.33735  1.0000
  N   N4        1.0  0.06754  0.00369  0.16476  1.0000
  N   N5        1.0  0.49618  0.19337  0.49668  1.0000
  N   N6        1.0  0.00251  0.69444  0.00316  1.0000
  N   N7        1.0  0.50382  0.80663  0.50333  1.0000
  N   N8        1.0  0.99748  0.30555  0.99683  1.0000
  N   N9        1.0  0.79816  0.49771  0.49827  1.0000
  N   N10       1.0  0.70097  0.99766  0.00147  1.0000
  N   N11       1.0  0.20185  0.50229  0.50173  1.0000
  N   N12       1.0  0.29902  0.00235  0.99852  1.0000
