data_image0
_chemical_formula_structural       NiH8C10S2N6
_chemical_formula_sum              "Ni1 H8 C10 S2 N6"
_cell_length_a       7.08688
_cell_length_b       7.08691
_cell_length_c       6.89912
_cell_angle_alpha    108.822
_cell_angle_beta     108.819
_cell_angle_gamma    91.7553

_space_group_name_H-M_alt    "P 1"
_space_group_IT_number       1

loop_
  _space_group_symop_operation_xyz
  'x, y, z'

loop_
  _atom_site_type_symbol
  _atom_site_label
  _atom_site_symmetry_multiplicity
  _atom_site_fract_x
  _atom_site_fract_y
  _atom_site_fract_z
  _atom_site_occupancy
  Ni  Ni1       1.0  0.50001  0.50001  0.00002  1.0000
  H   H1        1.0  0.27172  0.06087  0.68595  1.0000
  H   H2        1.0  0.93913  0.72829  0.31405  1.0000
  H   H3        1.0  0.72829  0.93913  0.31405  1.0000
  H   H4        1.0  0.06087  0.27171  0.68595  1.0000
  H   H5        1.0  0.27403  0.71276  0.70406  1.0000
  H   H6        1.0  0.28723  0.72598  0.29596  1.0000
  H   H7        1.0  0.72598  0.28724  0.29594  1.0000
  H   H8        1.0  0.71277  0.27402  0.70404  1.0000
  C   C1        1.0  0.37410  0.03506  0.82790  1.0000
  C   C2        1.0  0.96494  0.62591  0.17209  1.0000
  C   C3        1.0  0.62591  0.96494  0.17209  1.0000
  C   C4        1.0  0.03506  0.37409  0.82791  1.0000
  C   C5        1.0  0.37501  0.84166  0.83668  1.0000
  C   C6        1.0  0.15833  0.62499  0.16332  1.0000
  C   C7        1.0  0.62499  0.15834  0.16331  1.0000
  C   C8        1.0  0.84166  0.37502  0.83668  1.0000
  C   C9        1.0  0.29454  0.29453  0.50089  1.0000
  C   C10       1.0  0.70542  0.70544  0.49906  1.0000
  S   S1        1.0  0.14384  0.14384  0.26583  1.0000
  S   S2        1.0  0.85622  0.85622  0.73427  1.0000
  N   N1        1.0  0.49847  0.19424  0.99134  1.0000
  N   N2        1.0  0.80575  0.50153  0.00865  1.0000
  N   N3        1.0  0.50153  0.80576  0.00866  1.0000
  N   N4        1.0  0.19425  0.49847  0.99135  1.0000
  N   N5        1.0  0.40344  0.40342  0.67682  1.0000
  N   N6        1.0  0.59650  0.59652  0.32309  1.0000
