data_image0
_chemical_formula_structural       Nd2H32C32N20Cl2O12
_chemical_formula_sum              "Nd2 H32 C32 N20 Cl2 O12"
_cell_length_a       8.73573
_cell_length_b       11.1202
_cell_length_c       13.0464
_cell_angle_alpha    115.204
_cell_angle_beta     105.562
_cell_angle_gamma    89.9922

_space_group_name_H-M_alt    "P 1"
_space_group_IT_number       1

loop_
  _space_group_symop_operation_xyz
  'x, y, z'

loop_
  _atom_site_type_symbol
  _atom_site_label
  _atom_site_symmetry_multiplicity
  _atom_site_fract_x
  _atom_site_fract_y
  _atom_site_fract_z
  _atom_site_occupancy
  Nd  Nd1       1.0  0.75004  0.44652  0.00007  1.0000
  Nd  Nd2       1.0  0.24995  0.55348  0.99993  1.0000
  H   H1        1.0  0.48147  0.27587  0.99831  1.0000
  H   H2        1.0  0.01867  0.27752  0.00171  1.0000
  H   H3        1.0  0.51853  0.72413  0.00169  1.0000
  H   H4        1.0  0.98133  0.72249  0.99829  1.0000
  H   H5        1.0  0.64566  0.23451  0.06317  1.0000
  H   H6        1.0  0.85448  0.17144  0.93697  1.0000
  H   H7        1.0  0.35434  0.76549  0.93683  1.0000
  H   H8        1.0  0.14551  0.82856  0.06303  1.0000
  H   H9        1.0  0.53132  0.70596  0.34655  1.0000
  H   H10       1.0  0.96860  0.35916  0.65329  1.0000
  H   H11       1.0  0.46869  0.29404  0.65345  1.0000
  H   H12       1.0  0.03140  0.64084  0.34671  1.0000
  H   H13       1.0  0.47309  0.53547  0.30751  1.0000
  H   H14       1.0  0.02694  0.22785  0.69257  1.0000
  H   H15       1.0  0.52691  0.46454  0.69249  1.0000
  H   H16       1.0  0.97306  0.77214  0.30743  1.0000
  H   H17       1.0  0.00469  0.93611  0.61793  1.0000
  H   H18       1.0  0.49535  0.31798  0.38210  1.0000
  H   H19       1.0  0.99531  0.06389  0.38207  1.0000
  H   H20       1.0  0.50465  0.68202  0.61791  1.0000
  H   H21       1.0  0.24194  0.08716  0.78789  1.0000
  H   H22       1.0  0.25814  0.29929  0.21213  1.0000
  H   H23       1.0  0.75807  0.91284  0.21211  1.0000
  H   H24       1.0  0.74186  0.70071  0.78787  1.0000
  H   H25       1.0  0.39854  0.00130  0.92637  1.0000
  H   H26       1.0  0.10158  0.07510  0.07358  1.0000
  H   H27       1.0  0.60146  0.99869  0.07363  1.0000
  H   H28       1.0  0.89842  0.92490  0.92642  1.0000
  H   H29       1.0  0.11646  0.63127  0.73864  1.0000
  H   H30       1.0  0.38337  0.89255  0.26137  1.0000
  H   H31       1.0  0.88354  0.36873  0.26136  1.0000
  H   H32       1.0  0.61663  0.10745  0.73863  1.0000
  C   C1        1.0  0.62740  0.56448  0.21358  1.0000
  C   C2        1.0  0.87258  0.35086  0.78637  1.0000
  C   C3        1.0  0.37260  0.43552  0.78642  1.0000
  C   C4        1.0  0.12742  0.64914  0.21363  1.0000
  C   C5        1.0  0.57324  0.60765  0.32455  1.0000
  C   C6        1.0  0.92673  0.28292  0.67541  1.0000
  C   C7        1.0  0.42676  0.39236  0.67545  1.0000
  C   C8        1.0  0.07328  0.71708  0.32459  1.0000
  C   C9        1.0  0.90491  0.68365  0.56985  1.0000
  C   C10       1.0  0.59504  0.11352  0.43020  1.0000
  C   C11       1.0  0.09509  0.31635  0.43015  1.0000
  C   C12       1.0  0.40496  0.88648  0.56980  1.0000
  C   C13       1.0  0.04364  0.77175  0.66495  1.0000
  C   C14       1.0  0.45633  0.10664  0.33508  1.0000
  C   C15       1.0  0.95636  0.22825  0.33505  1.0000
  C   C16       1.0  0.54367  0.89337  0.66492  1.0000
  C   C17       1.0  0.07985  0.90192  0.67919  1.0000
  C   C18       1.0  0.42013  0.22261  0.32086  1.0000
  C   C19       1.0  0.92015  0.09808  0.32081  1.0000
  C   C20       1.0  0.57987  0.77739  0.67914  1.0000
  C   C21       1.0  0.20959  0.98529  0.77292  1.0000
  C   C22       1.0  0.29041  0.21237  0.22710  1.0000
  C   C23       1.0  0.79041  0.01470  0.22708  1.0000
  C   C24       1.0  0.70959  0.78763  0.77290  1.0000
  C   C25       1.0  0.29777  0.93746  0.85059  1.0000
  C   C26       1.0  0.20227  0.08695  0.14939  1.0000
  C   C27       1.0  0.70223  0.06254  0.14941  1.0000
  C   C28       1.0  0.79773  0.91305  0.85061  1.0000
  C   C29       1.0  0.13978  0.73146  0.74632  1.0000
  C   C30       1.0  0.36012  0.98509  0.25371  1.0000
  C   C31       1.0  0.86022  0.26854  0.25368  1.0000
  C   C32       1.0  0.63988  0.01491  0.74629  1.0000
  N   N1        1.0  0.81581  0.71815  0.48781  1.0000
  N   N2        1.0  0.68404  0.23005  0.51218  1.0000
  N   N3        1.0  0.18419  0.28185  0.51219  1.0000
  N   N4        1.0  0.31596  0.76995  0.48782  1.0000
  N   N5        1.0  0.69987  0.61562  0.42580  1.0000
  N   N6        1.0  0.80011  0.18961  0.57422  1.0000
  N   N7        1.0  0.30013  0.38438  0.57420  1.0000
  N   N8        1.0  0.19989  0.81039  0.42578  1.0000
  N   N9        1.0  0.71361  0.52035  0.46379  1.0000
  N   N10       1.0  0.78654  0.05639  0.53631  1.0000
  N   N11       1.0  0.28639  0.47965  0.53621  1.0000
  N   N12       1.0  0.21346  0.94361  0.46369  1.0000
  N   N13       1.0  0.84361  0.56254  0.55560  1.0000
  N   N14       1.0  0.65652  0.00672  0.44451  1.0000
  N   N15       1.0  0.15639  0.43746  0.44439  1.0000
  N   N16       1.0  0.34348  0.99328  0.55549  1.0000
  N   N17       1.0  0.26375  0.81304  0.83745  1.0000
  N   N18       1.0  0.23619  0.97564  0.16255  1.0000
  N   N19       1.0  0.73625  0.18696  0.16255  1.0000
  N   N20       1.0  0.76381  0.02436  0.83745  1.0000
  Cl  Cl1       1.0  0.74998  0.69759  0.00001  1.0000
  Cl  Cl2       1.0  0.25002  0.30241  0.99999  1.0000
  O   O1        1.0  0.52976  0.56392  0.12107  1.0000
  O   O2        1.0  0.97025  0.44284  0.87878  1.0000
  O   O3        1.0  0.47024  0.43608  0.87893  1.0000
  O   O4        1.0  0.02975  0.55716  0.12122  1.0000
  O   O5        1.0  0.76541  0.52957  0.21529  1.0000
  O   O6        1.0  0.73460  0.31433  0.78475  1.0000
  O   O7        1.0  0.23459  0.47043  0.78471  1.0000
  O   O8        1.0  0.26540  0.68567  0.21525  1.0000
  O   O9        1.0  0.59456  0.26670  0.99947  1.0000
  O   O10       1.0  0.90560  0.26725  0.00062  1.0000
  O   O11       1.0  0.40544  0.73330  0.00053  1.0000
  O   O12       1.0  0.09440  0.73275  0.99938  1.0000
