data_image0
_chemical_formula_structural       CuH36C36N4O6
_chemical_formula_sum              "Cu1 H36 C36 N4 O6"
_cell_length_a       8.48219
_cell_length_b       9.12622
_cell_length_c       10.8341
_cell_angle_alpha    77.4649
_cell_angle_beta     86.3315
_cell_angle_gamma    77.647

_space_group_name_H-M_alt    "P 1"
_space_group_IT_number       1

loop_
  _space_group_symop_operation_xyz
  'x, y, z'

loop_
  _atom_site_type_symbol
  _atom_site_label
  _atom_site_symmetry_multiplicity
  _atom_site_fract_x
  _atom_site_fract_y
  _atom_site_fract_z
  _atom_site_occupancy
  Cu  Cu1       1.0  0.50000  0.00000  0.00000  1.0000
  H   H1        1.0  0.98827  0.72663  0.76153  1.0000
  H   H2        1.0  0.01172  0.27337  0.23847  1.0000
  H   H3        1.0  0.09786  0.68854  0.55090  1.0000
  H   H4        1.0  0.90215  0.31147  0.44910  1.0000
  H   H5        1.0  0.68120  0.00977  0.37782  1.0000
  H   H6        1.0  0.31881  0.99023  0.62217  1.0000
  H   H7        1.0  0.57410  0.04621  0.59146  1.0000
  H   H8        1.0  0.42590  0.95380  0.40853  1.0000
  H   H9        1.0  0.11055  0.75288  0.20801  1.0000
  H   H10       1.0  0.88947  0.24712  0.79200  1.0000
  H   H11       1.0  0.10007  0.61959  0.35518  1.0000
  H   H12       1.0  0.89994  0.38040  0.64482  1.0000
  H   H13       1.0  0.19352  0.78128  0.34680  1.0000
  H   H14       1.0  0.80649  0.21871  0.65320  1.0000
  H   H15       1.0  0.16327  0.79084  0.83990  1.0000
  H   H16       1.0  0.83673  0.20917  0.16011  1.0000
  H   H17       1.0  0.32018  0.89818  0.81012  1.0000
  H   H18       1.0  0.67982  0.10182  0.18989  1.0000
  H   H19       1.0  0.15441  0.95076  0.91041  1.0000
  H   H20       1.0  0.84560  0.04924  0.08960  1.0000
  H   H21       1.0  0.64825  0.77238  0.25555  1.0000
  H   H22       1.0  0.35175  0.22761  0.74445  1.0000
  H   H23       1.0  0.70014  0.53214  0.42191  1.0000
  H   H24       1.0  0.29986  0.46785  0.57809  1.0000
  H   H25       1.0  0.57366  0.31317  0.41313  1.0000
  H   H26       1.0  0.42634  0.68682  0.58686  1.0000
  H   H27       1.0  0.38698  0.32853  0.24111  1.0000
  H   H28       1.0  0.61303  0.67146  0.75888  1.0000
  H   H29       1.0  0.27853  0.39469  0.03260  1.0000
  H   H30       1.0  0.72147  0.60531  0.96739  1.0000
  H   H31       1.0  0.24043  0.53802  0.89430  1.0000
  H   H32       1.0  0.75956  0.46198  0.10570  1.0000
  H   H33       1.0  0.99010  0.66940  0.00289  1.0000
  H   H34       1.0  0.00990  0.33060  0.99712  1.0000
  H   H35       1.0  0.02779  0.51497  0.13545  1.0000
  H   H36       1.0  0.97221  0.48503  0.86455  1.0000
  C   C1        1.0  0.70993  0.90799  0.81945  1.0000
  C   C2        1.0  0.29006  0.09202  0.18054  1.0000
  C   C3        1.0  0.77489  0.88864  0.69086  1.0000
  C   C4        1.0  0.22510  0.11136  0.30914  1.0000
  C   C5        1.0  0.92193  0.78903  0.67684  1.0000
  C   C6        1.0  0.07807  0.21097  0.32316  1.0000
  C   C7        1.0  0.98293  0.76682  0.55821  1.0000
  C   C8        1.0  0.01707  0.23318  0.44179  1.0000
  C   C9        1.0  0.89513  0.84705  0.45001  1.0000
  C   C10       1.0  0.10487  0.15296  0.54998  1.0000
  C   C11       1.0  0.74746  0.94800  0.46273  1.0000
  C   C12       1.0  0.25255  0.05200  0.53726  1.0000
  C   C13       1.0  0.68841  0.96783  0.58156  1.0000
  C   C14       1.0  0.31159  0.03217  0.41843  1.0000
  C   C15       1.0  0.09604  0.74086  0.31046  1.0000
  C   C16       1.0  0.90397  0.25914  0.68954  1.0000
  C   C17       1.0  0.23572  0.85253  0.88134  1.0000
  C   C18       1.0  0.76428  0.14748  0.11867  1.0000
  C   C19       1.0  0.32803  0.75540  0.99136  1.0000
  C   C20       1.0  0.67198  0.24460  0.00865  1.0000
  C   C21       1.0  0.41200  0.56123  0.15269  1.0000
  C   C22       1.0  0.58799  0.43876  0.84731  1.0000
  C   C23       1.0  0.48497  0.68609  0.15644  1.0000
  C   C24       1.0  0.51503  0.31391  0.84357  1.0000
  C   C25       1.0  0.59157  0.67687  0.25257  1.0000
  C   C26       1.0  0.40843  0.32313  0.74744  1.0000
  C   C27       1.0  0.62088  0.54123  0.34403  1.0000
  C   C28       1.0  0.37911  0.45877  0.65598  1.0000
  C   C29       1.0  0.54827  0.41714  0.33949  1.0000
  C   C30       1.0  0.45173  0.58286  0.66051  1.0000
  C   C31       1.0  0.44293  0.42465  0.24343  1.0000
  C   C32       1.0  0.55707  0.57535  0.75657  1.0000
  C   C33       1.0  0.22313  0.51567  0.99757  1.0000
  C   C34       1.0  0.77687  0.48433  0.00243  1.0000
  C   C35       1.0  0.04377  0.54647  0.03203  1.0000
  C   C36       1.0  0.95623  0.45354  0.96798  1.0000
  N   N1        1.0  0.43152  0.80304  0.05373  1.0000
  N   N2        1.0  0.56848  0.19696  0.94627  1.0000
  N   N3        1.0  0.31471  0.60853  0.04678  1.0000
  N   N4        1.0  0.68530  0.39147  0.95322  1.0000
  O   O1        1.0  0.55591  0.96506  0.82433  1.0000
  O   O2        1.0  0.44409  0.03495  0.17566  1.0000
  O   O3        1.0  0.79961  0.86884  0.91374  1.0000
  O   O4        1.0  0.20039  0.13116  0.08625  1.0000
  O   O5        1.0  0.94190  0.83456  0.32955  1.0000
  O   O6        1.0  0.05811  0.16543  0.67045  1.0000
