data_image0
_cell_length_a       9.19288
_cell_length_b       9.19288
_cell_length_c       9.19288
_cell_angle_alpha    60
_cell_angle_beta     60
_cell_angle_gamma    60

_symmetry_space_group_name_H-M    "P 1"
_symmetry_int_tables_number       1

loop_
  _symmetry_equiv_pos_as_xyz
  'x, y, z'

loop_
  _atom_site_label
  _atom_site_occupancy
  _atom_site_fract_x
  _atom_site_fract_y
  _atom_site_fract_z
  _atom_site_thermal_displace_type
  _atom_site_B_iso_or_equiv
  _atom_site_type_symbol
  Na1      1.0000 0.12500  0.62500  0.12500  Biso   1.000  Na
  Na2      1.0000 0.12500  0.12500  0.62500  Biso   1.000  Na
  Na3      1.0000 0.62500  0.12500  0.12500  Biso   1.000  Na
  Na4      1.0000 0.12500  0.12500  0.12500  Biso   1.000  Na
  Pr1      1.0000 0.62500  0.12500  0.62500  Biso   1.000  Pr
  Pr2      1.0000 0.62500  0.62500  0.62500  Biso   1.000  Pr
  Pr3      1.0000 0.12500  0.62500  0.62500  Biso   1.000  Pr
  Pr4      1.0000 0.62500  0.62500  0.12500  Biso   1.000  Pr
  Te1      1.0000 0.37783  0.86651  0.37783  Biso   1.000  Te
  Te2      1.0000 0.87217  0.38349  0.87217  Biso   1.000  Te
  Te3      1.0000 0.87217  0.87217  0.38349  Biso   1.000  Te
  Te4      1.0000 0.87217  0.87217  0.87217  Biso   1.000  Te
  Te5      1.0000 0.86651  0.37783  0.37783  Biso   1.000  Te
  Te6      1.0000 0.37783  0.37783  0.86651  Biso   1.000  Te
  Te7      1.0000 0.37783  0.37783  0.37783  Biso   1.000  Te
  Te8      1.0000 0.38349  0.87217  0.87217  Biso   1.000  Te
