data_image0
_cell_length_a       4.22633
_cell_length_b       13.1691
_cell_length_c       14.6422
_cell_angle_alpha    77.9434
_cell_angle_beta     90
_cell_angle_gamma    90

_symmetry_space_group_name_H-M    "P 1"
_symmetry_int_tables_number       1

loop_
  _symmetry_equiv_pos_as_xyz
  'x, y, z'

loop_
  _atom_site_label
  _atom_site_occupancy
  _atom_site_fract_x
  _atom_site_fract_y
  _atom_site_fract_z
  _atom_site_thermal_displace_type
  _atom_site_B_iso_or_equiv
  _atom_site_type_symbol
  Ho1      1.0000 0.25000  0.39333  0.77023  Biso   1.000  Ho
  Ho2      1.0000 0.75000  0.60666  0.22977  Biso   1.000  Ho
  Ho3      1.0000 0.25000  0.66216  0.85501  Biso   1.000  Ho
  Ho4      1.0000 0.75000  0.33784  0.14499  Biso   1.000  Ho
  Ho5      1.0000 0.25000  0.66914  0.57766  Biso   1.000  Ho
  Ho6      1.0000 0.75000  0.33086  0.42234  Biso   1.000  Ho
  Ho7      1.0000 0.25000  0.95293  0.36154  Biso   1.000  Ho
  Ho8      1.0000 0.75000  0.04707  0.63846  Biso   1.000  Ho
  Sb1      1.0000 0.25000  0.14178  0.77925  Biso   1.000  Sb
  Sb2      1.0000 0.75000  0.85822  0.22075  Biso   1.000  Sb
  Sb3      1.0000 0.25000  0.14334  0.48217  Biso   1.000  Sb
  Sb4      1.0000 0.75000  0.85666  0.51783  Biso   1.000  Sb
  Sb5      1.0000 0.25000  0.15241  0.17168  Biso   1.000  Sb
  Sb6      1.0000 0.75000  0.84759  0.82832  Biso   1.000  Sb
  Sb7      1.0000 0.25000  0.41982  0.97527  Biso   1.000  Sb
  Sb8      1.0000 0.75000  0.58018  0.02473  Biso   1.000  Sb
  Sb9      1.0000 0.75000  0.03032  0.90829  Biso   1.000  Sb
  Sb10     1.0000 0.25000  0.96968  0.09171  Biso   1.000  Sb
  Sb11     1.0000 0.75000  0.13840  0.32229  Biso   1.000  Sb
  Sb12     1.0000 0.25000  0.86160  0.67771  Biso   1.000  Sb
  Sb13     1.0000 0.75000  0.27856  0.93766  Biso   1.000  Sb
  Sb14     1.0000 0.25000  0.72144  0.06234  Biso   1.000  Sb
  Sb15     1.0000 0.75000  0.28442  0.65331  Biso   1.000  Sb
  Sb16     1.0000 0.25000  0.71558  0.34669  Biso   1.000  Sb
  Sb17     1.0000 0.75000  0.57547  0.73445  Biso   1.000  Sb
  Sb18     1.0000 0.25000  0.42453  0.26555  Biso   1.000  Sb
  Sb19     1.0000 0.75000  0.57441  0.44933  Biso   1.000  Sb
  Sb20     1.0000 0.25000  0.42559  0.55067  Biso   1.000  Sb
