data_image0
_cell_length_a       8.82795
_cell_length_b       8.82795
_cell_length_c       8.82795
_cell_angle_alpha    60
_cell_angle_beta     60
_cell_angle_gamma    60

_symmetry_space_group_name_H-M    "P 1"
_symmetry_int_tables_number       1

loop_
  _symmetry_equiv_pos_as_xyz
  'x, y, z'

loop_
  _atom_site_label
  _atom_site_occupancy
  _atom_site_fract_x
  _atom_site_fract_y
  _atom_site_fract_z
  _atom_site_thermal_displace_type
  _atom_site_B_iso_or_equiv
  _atom_site_type_symbol
  Rb1      1.0000 0.75000  0.75000  0.75000  Biso   1.000  Rb
  Rb2      1.0000 0.25000  0.25000  0.25000  Biso   1.000  Rb
  Rb3      1.0000 0.50000  0.50000  0.50000  Biso   1.000  Rb
  Al1      1.0000 0.00000  0.00000  0.00000  Biso   1.000  Al
  I1       1.0000 0.77772  0.22228  0.22228  Biso   1.000  I 
  I2       1.0000 0.22228  0.22228  0.77772  Biso   1.000  I 
  I3       1.0000 0.22228  0.77772  0.77772  Biso   1.000  I 
  I4       1.0000 0.22228  0.77772  0.22228  Biso   1.000  I 
  I5       1.0000 0.77772  0.22228  0.77772  Biso   1.000  I 
  I6       1.0000 0.77772  0.77772  0.22228  Biso   1.000  I 
