data_image0
_cell_length_a       5.49673
_cell_length_b       5.49673
_cell_length_c       5.49673
_cell_angle_alpha    56.7041
_cell_angle_beta     56.7041
_cell_angle_gamma    56.7041

_symmetry_space_group_name_H-M    "P 1"
_symmetry_int_tables_number       1

loop_
  _symmetry_equiv_pos_as_xyz
  'x, y, z'

loop_
  _atom_site_label
  _atom_site_occupancy
  _atom_site_fract_x
  _atom_site_fract_y
  _atom_site_fract_z
  _atom_site_thermal_displace_type
  _atom_site_B_iso_or_equiv
  _atom_site_type_symbol
  Li1      1.0000 0.50000  0.50000  0.50000  Biso   1.000  Li
  Ir1      1.0000 0.00000  0.00000  0.00000  Biso   1.000  Ir
  F1       1.0000 0.23906  0.64523  0.87467  Biso   1.000  F 
  F2       1.0000 0.87467  0.23906  0.64523  Biso   1.000  F 
  F3       1.0000 0.35477  0.12533  0.76094  Biso   1.000  F 
  F4       1.0000 0.64523  0.87467  0.23906  Biso   1.000  F 
  F5       1.0000 0.12533  0.76094  0.35477  Biso   1.000  F 
  F6       1.0000 0.76094  0.35477  0.12533  Biso   1.000  F 
