data_image0
_cell_length_a       8.61517
_cell_length_b       8.61517
_cell_length_c       10.5565
_cell_angle_alpha    52.4322
_cell_angle_beta     52.4322
_cell_angle_gamma    28.9346

_symmetry_space_group_name_H-M    "P 1"
_symmetry_int_tables_number       1

loop_
  _symmetry_equiv_pos_as_xyz
  'x, y, z'

loop_
  _atom_site_label
  _atom_site_occupancy
  _atom_site_fract_x
  _atom_site_fract_y
  _atom_site_fract_z
  _atom_site_thermal_displace_type
  _atom_site_B_iso_or_equiv
  _atom_site_type_symbol
  Sm1      1.0000 0.50000  0.50000  0.00000  Biso   1.000  Sm
  Sm2      1.0000 0.82829  0.82829  0.68529  Biso   1.000  Sm
  Sm3      1.0000 0.17171  0.17171  0.31472  Biso   1.000  Sm
  Sb1      1.0000 0.64052  0.64052  0.59064  Biso   1.000  Sb
  Sb2      1.0000 0.17139  0.17139  0.97526  Biso   1.000  Sb
  Sb3      1.0000 0.82861  0.82861  0.02474  Biso   1.000  Sb
  Sb4      1.0000 0.35948  0.35948  0.40936  Biso   1.000  Sb
  Pt1      1.0000 0.83084  0.83084  0.26905  Biso   1.000  Pt
  Pt2      1.0000 0.62278  0.62278  0.15584  Biso   1.000  Pt
  Pt3      1.0000 0.50000  0.50000  0.50000  Biso   1.000  Pt
  Pt4      1.0000 0.16916  0.16916  0.73095  Biso   1.000  Pt
  Pt5      1.0000 0.98308  0.98308  0.32734  Biso   1.000  Pt
  Pt6      1.0000 0.01692  0.01692  0.67266  Biso   1.000  Pt
  Pt7      1.0000 0.37722  0.37722  0.84416  Biso   1.000  Pt
