data_image0
_cell_length_a       8.18751
_cell_length_b       8.18751
_cell_length_c       8.18751
_cell_angle_alpha    120.261
_cell_angle_beta     120.261
_cell_angle_gamma    89.5489

_symmetry_space_group_name_H-M    "P 1"
_symmetry_int_tables_number       1

loop_
  _symmetry_equiv_pos_as_xyz
  'x, y, z'

loop_
  _atom_site_label
  _atom_site_occupancy
  _atom_site_fract_x
  _atom_site_fract_y
  _atom_site_fract_z
  _atom_site_thermal_displace_type
  _atom_site_B_iso_or_equiv
  _atom_site_type_symbol
  Sr1      1.0000 0.25000  0.25000  0.00000  Biso   1.000  Sr
  Sr2      1.0000 0.75000  0.75000  0.00000  Biso   1.000  Sr
  Cu1      1.0000 0.93569  0.20345  0.13914  Biso   1.000  Cu
  Cu2      1.0000 0.20345  0.06431  0.26776  Biso   1.000  Cu
  Cu3      1.0000 0.79655  0.93569  0.73224  Biso   1.000  Cu
  Cu4      1.0000 0.43569  0.29655  0.73224  Biso   1.000  Cu
  Cu5      1.0000 0.06431  0.79655  0.86086  Biso   1.000  Cu
  Cu6      1.0000 0.80678  0.05887  0.50000  Biso   1.000  Cu
  Cu7      1.0000 0.55887  0.30678  0.50000  Biso   1.000  Cu
  Cu8      1.0000 0.19322  0.94113  0.50000  Biso   1.000  Cu
  Cu9      1.0000 0.44113  0.69322  0.50000  Biso   1.000  Cu
  Cu10     1.0000 0.94113  0.44113  0.74791  Biso   1.000  Cu
  Cu11     1.0000 0.69322  0.19322  0.25209  Biso   1.000  Cu
  Cu12     1.0000 0.05887  0.55887  0.25209  Biso   1.000  Cu
  Cu13     1.0000 0.70345  0.43569  0.13914  Biso   1.000  Cu
  Cu14     1.0000 0.56431  0.70345  0.26776  Biso   1.000  Cu
  Cu15     1.0000 0.50000  0.00000  0.50000  Biso   1.000  Cu
  Cu16     1.0000 0.00000  0.50000  0.50000  Biso   1.000  Cu
  Cu17     1.0000 0.30678  0.80678  0.74791  Biso   1.000  Cu
  Cu18     1.0000 0.29655  0.56431  0.86086  Biso   1.000  Cu
  Si1      1.0000 0.79188  0.29188  0.85157  Biso   1.000  Si
  Si2      1.0000 0.55969  0.05969  0.85157  Biso   1.000  Si
  Si3      1.0000 0.05969  0.20812  0.50000  Biso   1.000  Si
  Si4      1.0000 0.29188  0.44031  0.50000  Biso   1.000  Si
  Si5      1.0000 0.94031  0.79188  0.50000  Biso   1.000  Si
  Si6      1.0000 0.44031  0.94031  0.14843  Biso   1.000  Si
  Si7      1.0000 0.20812  0.70812  0.14843  Biso   1.000  Si
  Si8      1.0000 0.70812  0.55969  0.50000  Biso   1.000  Si
