data_image0
_cell_length_a       7.42394
_cell_length_b       6.37994
_cell_length_c       9.30309
_cell_angle_alpha    76.9664
_cell_angle_beta     90
_cell_angle_gamma    90

_symmetry_space_group_name_H-M    "P 1"
_symmetry_int_tables_number       1

loop_
  _symmetry_equiv_pos_as_xyz
  'x, y, z'

loop_
  _atom_site_label
  _atom_site_occupancy
  _atom_site_fract_x
  _atom_site_fract_y
  _atom_site_fract_z
  _atom_site_thermal_displace_type
  _atom_site_B_iso_or_equiv
  _atom_site_type_symbol
  Rb1      1.0000 0.75000  0.74624  0.05105  Biso   1.000  Rb
  Rb2      1.0000 0.25000  0.25376  0.94895  Biso   1.000  Rb
  Cu1      1.0000 0.75000  0.88964  0.60919  Biso   1.000  Cu
  Cu2      1.0000 0.25000  0.11036  0.39081  Biso   1.000  Cu
  Pd1      1.0000 0.50000  0.50000  0.50000  Biso   1.000  Pd
  Pd2      1.0000 0.00000  0.50000  0.50000  Biso   1.000  Pd
  Se1      1.0000 0.25000  0.95522  0.65157  Biso   1.000  Se
  Se2      1.0000 0.99116  0.31373  0.29110  Biso   1.000  Se
  Se3      1.0000 0.75000  0.27353  0.63274  Biso   1.000  Se
  Se4      1.0000 0.25000  0.72647  0.36726  Biso   1.000  Se
  Se5      1.0000 0.50884  0.31373  0.29110  Biso   1.000  Se
  Se6      1.0000 0.25000  0.70072  0.11547  Biso   1.000  Se
  Se7      1.0000 0.75000  0.29928  0.88453  Biso   1.000  Se
  Se8      1.0000 0.75000  0.04478  0.34843  Biso   1.000  Se
  Se9      1.0000 0.00884  0.68627  0.70890  Biso   1.000  Se
  Se10     1.0000 0.49116  0.68627  0.70890  Biso   1.000  Se
