data_image0
_cell_length_a       3.73396
_cell_length_b       4.98298
_cell_length_c       7.068
_cell_angle_alpha    90
_cell_angle_beta     90
_cell_angle_gamma    90

_symmetry_space_group_name_H-M    "P 1"
_symmetry_int_tables_number       1

loop_
  _symmetry_equiv_pos_as_xyz
  'x, y, z'

loop_
  _atom_site_label
  _atom_site_occupancy
  _atom_site_fract_x
  _atom_site_fract_y
  _atom_site_fract_z
  _atom_site_thermal_displace_type
  _atom_site_B_iso_or_equiv
  _atom_site_type_symbol
  Si1      1.0000 0.25000  0.28921  0.61433  Biso   1.000  Si
  Si2      1.0000 0.75000  0.71079  0.38567  Biso   1.000  Si
  Si3      1.0000 0.25000  0.78921  0.88567  Biso   1.000  Si
  Si4      1.0000 0.75000  0.21079  0.11433  Biso   1.000  Si
  Ni1      1.0000 0.25000  0.45823  0.29483  Biso   1.000  Ni
  Ni2      1.0000 0.75000  0.54177  0.70517  Biso   1.000  Ni
  Ni3      1.0000 0.25000  0.95823  0.20517  Biso   1.000  Ni
  Ni4      1.0000 0.75000  0.04177  0.79483  Biso   1.000  Ni
  Ni5      1.0000 0.25000  0.32951  0.94001  Biso   1.000  Ni
  Ni6      1.0000 0.75000  0.67049  0.05999  Biso   1.000  Ni
  Ni7      1.0000 0.25000  0.82951  0.55999  Biso   1.000  Ni
  Ni8      1.0000 0.75000  0.17049  0.44001  Biso   1.000  Ni
