data_image0
_cell_length_a       10.8021
_cell_length_b       5.07057
_cell_length_c       8.10219
_cell_angle_alpha    51.7057
_cell_angle_beta     90
_cell_angle_gamma    90

_symmetry_space_group_name_H-M    "P 1"
_symmetry_int_tables_number       1

loop_
  _symmetry_equiv_pos_as_xyz
  'x, y, z'

loop_
  _atom_site_label
  _atom_site_occupancy
  _atom_site_fract_x
  _atom_site_fract_y
  _atom_site_fract_z
  _atom_site_thermal_displace_type
  _atom_site_B_iso_or_equiv
  _atom_site_type_symbol
  Li1      1.0000 0.83792  0.68898  0.00425  Biso   1.000  Li
  Li2      1.0000 0.33792  0.31102  0.49575  Biso   1.000  Li
  Li3      1.0000 0.16208  0.31102  0.99575  Biso   1.000  Li
  Li4      1.0000 0.66208  0.68898  0.50425  Biso   1.000  Li
  Li5      1.0000 0.92605  0.53289  0.76306  Biso   1.000  Li
  Li6      1.0000 0.42605  0.46711  0.73694  Biso   1.000  Li
  Li7      1.0000 0.07395  0.46711  0.23694  Biso   1.000  Li
  Li8      1.0000 0.57395  0.53289  0.26305  Biso   1.000  Li
  Mg1      1.0000 0.83553  0.19053  0.50155  Biso   1.000  Mg
  Mg2      1.0000 0.16447  0.80947  0.49845  Biso   1.000  Mg
  Mg3      1.0000 0.66447  0.19053  0.00154  Biso   1.000  Mg
  Mg4      1.0000 0.33553  0.80947  0.99845  Biso   1.000  Mg
  Si1      1.0000 0.08743  0.06339  0.74776  Biso   1.000  Si
  Si2      1.0000 0.41257  0.06339  0.24776  Biso   1.000  Si
  Si3      1.0000 0.91257  0.93661  0.25224  Biso   1.000  Si
  Si4      1.0000 0.58743  0.93661  0.75224  Biso   1.000  Si
  O1       1.0000 0.16139  0.74669  0.95914  Biso   1.000  O 
  O2       1.0000 0.83861  0.25331  0.04086  Biso   1.000  O 
  O3       1.0000 0.33861  0.74669  0.45914  Biso   1.000  O 
  O4       1.0000 0.59106  0.60740  0.75525  Biso   1.000  O 
  O5       1.0000 0.66139  0.25331  0.54086  Biso   1.000  O 
  O6       1.0000 0.84061  0.83252  0.46640  Biso   1.000  O 
  O7       1.0000 0.34061  0.16748  0.03361  Biso   1.000  O 
  O8       1.0000 0.15939  0.16748  0.53360  Biso   1.000  O 
  O9       1.0000 0.44314  0.04530  0.74864  Biso   1.000  O 
  O10      1.0000 0.09106  0.39260  0.74475  Biso   1.000  O 
  O11      1.0000 0.40894  0.39261  0.24475  Biso   1.000  O 
  O12      1.0000 0.90894  0.60740  0.25525  Biso   1.000  O 
  O13      1.0000 0.05686  0.04530  0.24864  Biso   1.000  O 
  O14      1.0000 0.94314  0.95470  0.75136  Biso   1.000  O 
  O15      1.0000 0.55686  0.95470  0.25136  Biso   1.000  O 
  O16      1.0000 0.65939  0.83252  0.96640  Biso   1.000  O 
