data_image0
_cell_length_a       5.91814
_cell_length_b       5.91814
_cell_length_c       5.91814
_cell_angle_alpha    122.815
_cell_angle_beta     116.363
_cell_angle_gamma    90.803

_symmetry_space_group_name_H-M    "P 1"
_symmetry_int_tables_number       1

loop_
  _symmetry_equiv_pos_as_xyz
  'x, y, z'

loop_
  _atom_site_label
  _atom_site_occupancy
  _atom_site_fract_x
  _atom_site_fract_y
  _atom_site_fract_z
  _atom_site_thermal_displace_type
  _atom_site_B_iso_or_equiv
  _atom_site_type_symbol
  K1       1.0000 0.24789  0.74789  0.50000  Biso   1.000  K 
  K2       1.0000 0.75211  0.25211  0.50000  Biso   1.000  K 
  Li1      1.0000 0.00000  0.00000  0.00000  Biso   1.000  Li
  Ta1      1.0000 0.50000  0.50000  0.00000  Biso   1.000  Ta
  F1       1.0000 0.76469  0.72988  0.49457  Biso   1.000  F 
  F2       1.0000 0.23531  0.72988  0.96518  Biso   1.000  F 
  F3       1.0000 0.23531  0.27012  0.50543  Biso   1.000  F 
  F4       1.0000 0.74902  0.74902  1.00000  Biso   1.000  F 
  F5       1.0000 0.25098  0.25098  0.00000  Biso   1.000  F 
  F6       1.0000 0.76469  0.27012  0.03482  Biso   1.000  F 
