data_image0
_cell_length_a       6.40188
_cell_length_b       6.41812
_cell_length_c       11.613
_cell_angle_alpha    90
_cell_angle_beta     90
_cell_angle_gamma    90

_symmetry_space_group_name_H-M    "P 1"
_symmetry_int_tables_number       1

loop_
  _symmetry_equiv_pos_as_xyz
  'x, y, z'

loop_
  _atom_site_label
  _atom_site_occupancy
  _atom_site_fract_x
  _atom_site_fract_y
  _atom_site_fract_z
  _atom_site_thermal_displace_type
  _atom_site_B_iso_or_equiv
  _atom_site_type_symbol
  Si1      1.0000 0.85399  0.26571  0.42599  Biso   1.000  Si
  Si2      1.0000 0.35399  0.23429  0.57400  Biso   1.000  Si
  Si3      1.0000 0.14601  0.76571  0.07401  Biso   1.000  Si
  Si4      1.0000 0.64601  0.73429  0.92600  Biso   1.000  Si
  Si5      1.0000 0.14601  0.73429  0.57400  Biso   1.000  Si
  Si6      1.0000 0.64601  0.76571  0.42599  Biso   1.000  Si
  Si7      1.0000 0.85399  0.23429  0.92600  Biso   1.000  Si
  Si8      1.0000 0.35399  0.26571  0.07401  Biso   1.000  Si
  Sb1      1.0000 0.11673  0.00625  0.32730  Biso   1.000  Sb
  Sb2      1.0000 0.61673  0.49375  0.67270  Biso   1.000  Sb
  Sb3      1.0000 0.88327  0.50625  0.17270  Biso   1.000  Sb
  Sb4      1.0000 0.38327  0.99375  0.82730  Biso   1.000  Sb
  Sb5      1.0000 0.88327  0.99375  0.67270  Biso   1.000  Sb
  Sb6      1.0000 0.38327  0.50625  0.32730  Biso   1.000  Sb
  Sb7      1.0000 0.11673  0.49375  0.82730  Biso   1.000  Sb
  Sb8      1.0000 0.61673  0.00625  0.17270  Biso   1.000  Sb
  Pt1      1.0000 0.51169  0.11848  0.39350  Biso   1.000  Pt
  Pt2      1.0000 0.01169  0.38152  0.60650  Biso   1.000  Pt
  Pt3      1.0000 0.48831  0.61848  0.10650  Biso   1.000  Pt
  Pt4      1.0000 0.98831  0.88152  0.89350  Biso   1.000  Pt
  Pt5      1.0000 0.48831  0.88152  0.60650  Biso   1.000  Pt
  Pt6      1.0000 0.98831  0.61848  0.39350  Biso   1.000  Pt
  Pt7      1.0000 0.51169  0.38152  0.89350  Biso   1.000  Pt
  Pt8      1.0000 0.01169  0.11848  0.10650  Biso   1.000  Pt
