data_image0
_cell_length_a       7.18996
_cell_length_b       7.18996
_cell_length_c       7.18996
_cell_angle_alpha    151.015
_cell_angle_beta     136.716
_cell_angle_gamma    52.936

_symmetry_space_group_name_H-M    "P 1"
_symmetry_int_tables_number       1

loop_
  _symmetry_equiv_pos_as_xyz
  'x, y, z'

loop_
  _atom_site_label
  _atom_site_occupancy
  _atom_site_fract_x
  _atom_site_fract_y
  _atom_site_fract_z
  _atom_site_thermal_displace_type
  _atom_site_B_iso_or_equiv
  _atom_site_type_symbol
  Ti1      1.0000 0.88178  0.38178  0.50000  Biso   1.000  Ti
  Ti2      1.0000 0.11822  0.61822  0.50000  Biso   1.000  Ti
  Te1      1.0000 0.70948  0.70948  0.00000  Biso   1.000  Te
  Te2      1.0000 0.29052  0.29052  0.00000  Biso   1.000  Te
  As1      1.0000 0.74886  0.00000  0.74886  Biso   1.000  As
  As2      1.0000 0.25114  0.00000  0.25114  Biso   1.000  As
