data_image0
_cell_length_a       8.38639
_cell_length_b       8.38639
_cell_length_c       8.38639
_cell_angle_alpha    120.577
_cell_angle_beta     120.577
_cell_angle_gamma    89.0041

_symmetry_space_group_name_H-M    "P 1"
_symmetry_int_tables_number       1

loop_
  _symmetry_equiv_pos_as_xyz
  'x, y, z'

loop_
  _atom_site_label
  _atom_site_occupancy
  _atom_site_fract_x
  _atom_site_fract_y
  _atom_site_fract_z
  _atom_site_thermal_displace_type
  _atom_site_B_iso_or_equiv
  _atom_site_type_symbol
  Sr1      1.0000 0.25000  0.25000  0.00000  Biso   1.000  Sr
  Sr2      1.0000 0.75000  0.75000  0.00000  Biso   1.000  Sr
  Cu1      1.0000 0.06069  0.56070  0.26467  Biso   1.000  Cu
  Cu2      1.0000 0.70398  0.20398  0.26467  Biso   1.000  Cu
  Cu3      1.0000 0.93930  0.43930  0.73533  Biso   1.000  Cu
  Cu4      1.0000 0.43930  0.70398  0.50000  Biso   1.000  Cu
  Cu5      1.0000 0.20398  0.93930  0.50000  Biso   1.000  Cu
  Cu6      1.0000 0.56070  0.29602  0.50000  Biso   1.000  Cu
  Cu7      1.0000 0.79602  0.06069  0.50000  Biso   1.000  Cu
  Cu8      1.0000 0.29602  0.79602  0.73532  Biso   1.000  Cu
  Cu9      1.0000 0.43795  0.29723  0.73518  Biso   1.000  Cu
  Cu10     1.0000 0.79723  0.93795  0.73518  Biso   1.000  Cu
  Cu11     1.0000 0.00000  0.50000  0.50000  Biso   1.000  Cu
  Cu12     1.0000 0.50000  0.00000  0.50000  Biso   1.000  Cu
  Cu13     1.0000 0.56205  0.70277  0.26482  Biso   1.000  Cu
  Cu14     1.0000 0.70277  0.43795  0.14072  Biso   1.000  Cu
  Cu15     1.0000 0.29723  0.56205  0.85928  Biso   1.000  Cu
  Cu16     1.0000 0.93795  0.20277  0.14072  Biso   1.000  Cu
  Cu17     1.0000 0.06205  0.79723  0.85928  Biso   1.000  Cu
  Cu18     1.0000 0.20277  0.06205  0.26482  Biso   1.000  Cu
  Ge1      1.0000 0.80084  0.30084  0.85817  Biso   1.000  Ge
  Ge2      1.0000 0.55733  0.05733  0.85817  Biso   1.000  Ge
  Ge3      1.0000 0.19916  0.69916  0.14183  Biso   1.000  Ge
  Ge4      1.0000 0.69916  0.55733  0.50000  Biso   1.000  Ge
  Ge5      1.0000 0.05733  0.19916  0.50000  Biso   1.000  Ge
  Ge6      1.0000 0.30084  0.44267  0.50000  Biso   1.000  Ge
  Ge7      1.0000 0.94267  0.80084  0.50000  Biso   1.000  Ge
  Ge8      1.0000 0.44267  0.94267  0.14183  Biso   1.000  Ge
