data_image0
_cell_length_a       6.89455
_cell_length_b       6.89455
_cell_length_c       4.78896
_cell_angle_alpha    90
_cell_angle_beta     90
_cell_angle_gamma    120

_symmetry_space_group_name_H-M    "P 1"
_symmetry_int_tables_number       1

loop_
  _symmetry_equiv_pos_as_xyz
  'x, y, z'

loop_
  _atom_site_label
  _atom_site_occupancy
  _atom_site_fract_x
  _atom_site_fract_y
  _atom_site_fract_z
  _atom_site_thermal_displace_type
  _atom_site_B_iso_or_equiv
  _atom_site_type_symbol
  Mn1      1.0000 0.00000  0.75510  0.75000  Biso   1.000  Mn
  Mn2      1.0000 0.00000  0.24490  0.25000  Biso   1.000  Mn
  Mn3      1.0000 0.75510  0.75510  0.25000  Biso   1.000  Mn
  Mn4      1.0000 0.75510  0.00000  0.75000  Biso   1.000  Mn
  Mn5      1.0000 0.24490  0.24490  0.75000  Biso   1.000  Mn
  Mn6      1.0000 0.24490  0.00000  0.25000  Biso   1.000  Mn
  Mn7      1.0000 0.33333  0.66667  0.50000  Biso   1.000  Mn
  Mn8      1.0000 0.66667  0.33333  0.00000  Biso   1.000  Mn
  Mn9      1.0000 0.66667  0.33333  0.50000  Biso   1.000  Mn
  Mn10     1.0000 0.33333  0.66667  0.00000  Biso   1.000  Mn
  Si1      1.0000 0.39770  0.00000  0.75000  Biso   1.000  Si
  Si2      1.0000 0.39770  0.39770  0.25000  Biso   1.000  Si
  Si3      1.0000 0.00000  0.60230  0.25000  Biso   1.000  Si
  Si4      1.0000 0.00000  0.39770  0.75000  Biso   1.000  Si
  Si5      1.0000 0.60230  0.60230  0.75000  Biso   1.000  Si
  Si6      1.0000 0.60230  0.00000  0.25000  Biso   1.000  Si
