data_image0
_cell_length_a       6.66995
_cell_length_b       6.66995
_cell_length_c       7.10429
_cell_angle_alpha    90
_cell_angle_beta     90
_cell_angle_gamma    120

_symmetry_space_group_name_H-M    "P 1"
_symmetry_int_tables_number       1

loop_
  _symmetry_equiv_pos_as_xyz
  'x, y, z'

loop_
  _atom_site_label
  _atom_site_occupancy
  _atom_site_fract_x
  _atom_site_fract_y
  _atom_site_fract_z
  _atom_site_thermal_displace_type
  _atom_site_B_iso_or_equiv
  _atom_site_type_symbol
  Ca1      1.0000 0.39413  0.39413  0.50000  Biso   1.000  Ca
  Ca2      1.0000 0.60587  0.00000  0.16667  Biso   1.000  Ca
  Ca3      1.0000 0.00000  0.60587  0.83333  Biso   1.000  Ca
  P1       1.0000 0.88372  0.22326  0.54323  Biso   1.000  P 
  P2       1.0000 0.22325  0.88372  0.45677  Biso   1.000  P 
  P3       1.0000 0.11628  0.33954  0.12344  Biso   1.000  P 
  P4       1.0000 0.77675  0.66046  0.20989  Biso   1.000  P 
  P5       1.0000 0.33954  0.11628  0.87656  Biso   1.000  P 
  P6       1.0000 0.66046  0.77674  0.79011  Biso   1.000  P 
  Ir1      1.0000 0.86369  0.86369  0.50000  Biso   1.000  Ir
  Ir2      1.0000 0.13631  0.00000  0.16667  Biso   1.000  Ir
  Ir3      1.0000 0.48596  0.48596  0.00000  Biso   1.000  Ir
  Ir4      1.0000 1.00000  0.51404  0.33333  Biso   1.000  Ir
  Ir5      1.0000 0.51404  0.00000  0.66667  Biso   1.000  Ir
  Ir6      1.0000 0.00000  0.13631  0.83333  Biso   1.000  Ir
