data_image0
_cell_length_a       4.62472
_cell_length_b       4.62472
_cell_length_c       4.62472
_cell_angle_alpha    105.601
_cell_angle_beta     105.601
_cell_angle_gamma    117.524

_symmetry_space_group_name_H-M    "P 1"
_symmetry_int_tables_number       1

loop_
  _symmetry_equiv_pos_as_xyz
  'x, y, z'

loop_
  _atom_site_label
  _atom_site_occupancy
  _atom_site_fract_x
  _atom_site_fract_y
  _atom_site_fract_z
  _atom_site_thermal_displace_type
  _atom_site_B_iso_or_equiv
  _atom_site_type_symbol
  B1       1.0000 0.25000  0.25000  0.00000  Biso   1.000  B 
  B2       1.0000 0.75000  0.75000  0.00000  Biso   1.000  B 
  W1       1.0000 0.82977  0.67023  0.50000  Biso   1.000  W 
  W2       1.0000 0.32977  0.82977  0.15953  Biso   1.000  W 
  W3       1.0000 0.17023  0.32977  0.50000  Biso   1.000  W 
  W4       1.0000 0.67023  0.17023  0.84047  Biso   1.000  W 
