data_image0
_cell_length_a       6.39424
_cell_length_b       6.39424
_cell_length_c       6.39424
_cell_angle_alpha    121.963
_cell_angle_beta     117.213
_cell_angle_gamma    90.7633

_symmetry_space_group_name_H-M    "P 1"
_symmetry_int_tables_number       1

loop_
  _symmetry_equiv_pos_as_xyz
  'x, y, z'

loop_
  _atom_site_label
  _atom_site_occupancy
  _atom_site_fract_x
  _atom_site_fract_y
  _atom_site_fract_z
  _atom_site_thermal_displace_type
  _atom_site_B_iso_or_equiv
  _atom_site_type_symbol
  Cs1      1.0000 0.74347  0.74347  0.00000  Biso   1.000  Cs
  Cs2      1.0000 0.25653  0.25653  0.00000  Biso   1.000  Cs
  Na1      1.0000 0.00000  0.50000  0.50000  Biso   1.000  Na
  Ta1      1.0000 0.50000  0.00000  0.50000  Biso   1.000  Ta
  F1       1.0000 0.74826  0.78656  0.53482  Biso   1.000  F 
  F2       1.0000 0.25174  0.78656  0.03830  Biso   1.000  F 
  F3       1.0000 0.25174  0.21344  0.46518  Biso   1.000  F 
  F4       1.0000 0.26803  0.76803  0.50000  Biso   1.000  F 
  F5       1.0000 0.73197  0.23197  0.50000  Biso   1.000  F 
  F6       1.0000 0.74826  0.21344  0.96170  Biso   1.000  F 
