data_image0
_cell_length_a       4.57203
_cell_length_b       7.32776
_cell_length_c       7.98953
_cell_angle_alpha    90
_cell_angle_beta     90
_cell_angle_gamma    90

_symmetry_space_group_name_H-M    "P 1"
_symmetry_int_tables_number       1

loop_
  _symmetry_equiv_pos_as_xyz
  'x, y, z'

loop_
  _atom_site_label
  _atom_site_occupancy
  _atom_site_fract_x
  _atom_site_fract_y
  _atom_site_fract_z
  _atom_site_thermal_displace_type
  _atom_site_B_iso_or_equiv
  _atom_site_type_symbol
  Sm1      1.0000 0.75000  0.48728  0.80725  Biso   1.000  Sm
  Sm2      1.0000 0.25000  0.01272  0.30725  Biso   1.000  Sm
  Sm3      1.0000 0.75000  0.98728  0.69275  Biso   1.000  Sm
  Sm4      1.0000 0.25000  0.51272  0.19275  Biso   1.000  Sm
  Sb1      1.0000 0.25000  0.67738  0.58752  Biso   1.000  Sb
  Sb2      1.0000 0.25000  0.17738  0.91248  Biso   1.000  Sb
  Sb3      1.0000 0.75000  0.32262  0.41248  Biso   1.000  Sb
  Sb4      1.0000 0.75000  0.82262  0.08752  Biso   1.000  Sb
  Ir1      1.0000 0.25000  0.79495  0.91077  Biso   1.000  Ir
  Ir2      1.0000 0.25000  0.29495  0.58923  Biso   1.000  Ir
  Ir3      1.0000 0.75000  0.70505  0.41077  Biso   1.000  Ir
  Ir4      1.0000 0.75000  0.20505  0.08923  Biso   1.000  Ir
