data_image0
_cell_length_a       11.1188
_cell_length_b       11.1188
_cell_length_c       11.1188
_cell_angle_alpha    101.25
_cell_angle_beta     101.25
_cell_angle_gamma    127.576

_symmetry_space_group_name_H-M    "P 1"
_symmetry_int_tables_number       1

loop_
  _symmetry_equiv_pos_as_xyz
  'x, y, z'

loop_
  _atom_site_label
  _atom_site_occupancy
  _atom_site_fract_x
  _atom_site_fract_y
  _atom_site_fract_z
  _atom_site_thermal_displace_type
  _atom_site_B_iso_or_equiv
  _atom_site_type_symbol
  Cs1      1.0000 0.84959  0.54891  0.84206  Biso   1.000  Cs
  Cs2      1.0000 0.70686  0.00753  0.15794  Biso   1.000  Cs
  Cs3      1.0000 0.79891  0.45685  0.19932  Biso   1.000  Cs
  Cs4      1.0000 0.25754  0.59959  0.80068  Biso   1.000  Cs
  Cs5      1.0000 0.51185  0.69381  0.33105  Biso   1.000  Cs
  Cs6      1.0000 0.36276  0.18079  0.66895  Biso   1.000  Cs
  Cs7      1.0000 0.94381  0.11276  0.68197  Biso   1.000  Cs
  Cs8      1.0000 0.43079  0.26185  0.31804  Biso   1.000  Cs
  Cs9      1.0000 0.98604  0.98604  0.00000  Biso   1.000  Cs
  Cs10     1.0000 0.23604  0.73604  0.50000  Biso   1.000  Cs
  Cs11     1.0000 0.72860  0.22860  0.50000  Biso   1.000  Cs
  Cs12     1.0000 0.47860  0.47860  0.00000  Biso   1.000  Cs
  Re1      1.0000 0.61761  0.04393  0.81916  Biso   1.000  Re
  Re2      1.0000 0.22476  0.79845  0.18084  Biso   1.000  Re
  Re3      1.0000 0.29393  0.97476  0.92632  Biso   1.000  Re
  Re4      1.0000 0.04845  0.36761  0.07368  Biso   1.000  Re
  Re5      1.0000 0.93536  0.76093  0.59635  Biso   1.000  Re
  Re6      1.0000 0.16458  0.33901  0.40365  Biso   1.000  Re
  Re7      1.0000 0.01093  0.91458  0.32557  Biso   1.000  Re
  Re8      1.0000 0.58901  0.68536  0.67443  Biso   1.000  Re
  N1       1.0000 0.62767  0.15261  0.71839  Biso   1.000  N 
  N2       1.0000 0.43422  0.90928  0.28162  Biso   1.000  N 
  N3       1.0000 0.40261  0.18422  0.02494  Biso   1.000  N 
  N4       1.0000 0.15928  0.37767  0.97506  Biso   1.000  N 
  N5       1.0000 0.80472  0.78541  0.20677  Biso   1.000  N 
  N6       1.0000 0.57865  0.59795  0.79323  Biso   1.000  N 
  N7       1.0000 0.03541  0.32865  0.48069  Biso   1.000  N 
  N8       1.0000 0.84795  0.55472  0.51931  Biso   1.000  N 
  N9       1.0000 0.82108  0.19158  0.98009  Biso   1.000  N 
  N10      1.0000 0.21149  0.84099  0.01991  Biso   1.000  N 
  N11      1.0000 0.44158  0.96149  0.87050  Biso   1.000  N 
  N12      1.0000 0.09099  0.57108  0.12950  Biso   1.000  N 
  N13      1.0000 0.00895  0.87659  0.48850  Biso   1.000  N 
  N14      1.0000 0.38809  0.52044  0.51150  Biso   1.000  N 
  N15      1.0000 0.12659  0.13809  0.36764  Biso   1.000  N 
  N16      1.0000 0.77044  0.75895  0.63236  Biso   1.000  N 
  N17      1.0000 0.11655  0.88167  0.76397  Biso   1.000  N 
  N18      1.0000 0.11770  0.35258  0.23603  Biso   1.000  N 
  N19      1.0000 0.13167  0.86770  0.26512  Biso   1.000  N 
  N20      1.0000 0.60258  0.86655  0.73488  Biso   1.000  N 
