data_image0
_cell_length_a       5.01493
_cell_length_b       5.01897
_cell_length_c       5.02121
_cell_angle_alpha    60.0147
_cell_angle_beta     60.0413
_cell_angle_gamma    90

_symmetry_space_group_name_H-M    "P 1"
_symmetry_int_tables_number       1

loop_
  _symmetry_equiv_pos_as_xyz
  'x, y, z'

loop_
  _atom_site_label
  _atom_site_occupancy
  _atom_site_fract_x
  _atom_site_fract_y
  _atom_site_fract_z
  _atom_site_thermal_displace_type
  _atom_site_B_iso_or_equiv
  _atom_site_type_symbol
  Nd1      1.0000 0.00386  0.25386  0.99227  Biso   1.000  Nd
  Mg1      1.0000 0.75289  0.50289  0.49422  Biso   1.000  Mg
  Ni1      1.0000 0.38028  0.38377  0.23944  Biso   1.000  Ni
  Ni2      1.0000 0.38028  0.87679  0.23944  Biso   1.000  Ni
  Ni3      1.0000 0.38087  0.87784  0.74432  Biso   1.000  Ni
  Ni4      1.0000 0.87482  0.87784  0.74432  Biso   1.000  Ni
