data_image0
_cell_length_a       6.55277
_cell_length_b       6.55277
_cell_length_c       9.88572
_cell_angle_alpha    86.4715
_cell_angle_beta     86.4715
_cell_angle_gamma    83.2626

_symmetry_space_group_name_H-M    "P 1"
_symmetry_int_tables_number       1

loop_
  _symmetry_equiv_pos_as_xyz
  'x, y, z'

loop_
  _atom_site_label
  _atom_site_occupancy
  _atom_site_fract_x
  _atom_site_fract_y
  _atom_site_fract_z
  _atom_site_thermal_displace_type
  _atom_site_B_iso_or_equiv
  _atom_site_type_symbol
  K1       1.0000 0.93329  0.63379  0.23012  Biso   1.000  K 
  K2       1.0000 0.36621  0.06671  0.76988  Biso   1.000  K 
  Hg1      1.0000 0.52409  0.47591  0.00000  Biso   1.000  Hg
  Hg2      1.0000 0.84315  0.15685  0.50000  Biso   1.000  Hg
  Hg3      1.0000 0.36005  0.63995  0.50000  Biso   1.000  Hg
  Ge1      1.0000 0.89532  0.56982  0.72523  Biso   1.000  Ge
  Ge2      1.0000 0.43018  0.10468  0.27477  Biso   1.000  Ge
  S1       1.0000 0.28524  0.24436  0.08131  Biso   1.000  S 
  S2       1.0000 0.75564  0.71476  0.91869  Biso   1.000  S 
  S3       1.0000 0.84095  0.23588  0.74127  Biso   1.000  S 
  S4       1.0000 0.76412  0.15904  0.25873  Biso   1.000  S 
  S5       1.0000 0.39355  0.76809  0.26076  Biso   1.000  S 
  S6       1.0000 0.27033  0.23005  0.45839  Biso   1.000  S 
  S7       1.0000 0.76995  0.72967  0.54161  Biso   1.000  S 
  S8       1.0000 0.23191  0.60645  0.73924  Biso   1.000  S 
