data_image0
_cell_length_a       5.90416
_cell_length_b       5.90416
_cell_length_c       5.74409
_cell_angle_alpha    71.8974
_cell_angle_beta     71.8974
_cell_angle_gamma    77.0221

_symmetry_space_group_name_H-M    "P 1"
_symmetry_int_tables_number       1

loop_
  _symmetry_equiv_pos_as_xyz
  'x, y, z'

loop_
  _atom_site_label
  _atom_site_occupancy
  _atom_site_fract_x
  _atom_site_fract_y
  _atom_site_fract_z
  _atom_site_thermal_displace_type
  _atom_site_B_iso_or_equiv
  _atom_site_type_symbol
  Sr1      1.0000 0.33701  0.33701  0.85249  Biso   1.000  Sr
  Sr2      1.0000 0.66299  0.66299  0.14751  Biso   1.000  Sr
  P1       1.0000 0.01140  0.01140  0.69081  Biso   1.000  P 
  P2       1.0000 0.98860  0.98860  0.30919  Biso   1.000  P 
  P3       1.0000 0.60499  0.11476  0.32094  Biso   1.000  P 
  P4       1.0000 0.88524  0.39501  0.67906  Biso   1.000  P 
  P5       1.0000 0.39501  0.88524  0.67906  Biso   1.000  P 
  P6       1.0000 0.11476  0.60499  0.32094  Biso   1.000  P 
