data_image0
_cell_length_a       6.47572
_cell_length_b       6.47572
_cell_length_c       6.47572
_cell_angle_alpha    109.471
_cell_angle_beta     109.471
_cell_angle_gamma    109.471

_symmetry_space_group_name_H-M    "P 1"
_symmetry_int_tables_number       1

loop_
  _symmetry_equiv_pos_as_xyz
  'x, y, z'

loop_
  _atom_site_label
  _atom_site_occupancy
  _atom_site_fract_x
  _atom_site_fract_y
  _atom_site_fract_z
  _atom_site_thermal_displace_type
  _atom_site_B_iso_or_equiv
  _atom_site_type_symbol
  Ca1      1.0000 0.50000  0.00000  0.50000  Biso   1.000  Ca
  Ca2      1.0000 0.50000  0.50000  0.00000  Biso   1.000  Ca
  Ca3      1.0000 1.00000  0.50000  0.50000  Biso   1.000  Ca
  Si1      1.0000 0.00000  0.36569  0.00000  Biso   1.000  Si
  Si2      1.0000 0.63431  0.63431  0.63431  Biso   1.000  Si
  Si3      1.0000 0.00000  0.00000  0.36569  Biso   1.000  Si
  Si4      1.0000 0.36569  0.00000  0.00000  Biso   1.000  Si
  Ir1      1.0000 0.00000  0.72079  0.00000  Biso   1.000  Ir
  Ir2      1.0000 0.00000  0.00000  0.72079  Biso   1.000  Ir
  Ir3      1.0000 0.27921  0.27921  0.27921  Biso   1.000  Ir
  Ir4      1.0000 0.72079  0.00000  0.00000  Biso   1.000  Ir
