data_image0
_cell_length_a       6.51828
_cell_length_b       6.51828
_cell_length_c       6.51828
_cell_angle_alpha    123.628
_cell_angle_beta     106.175
_cell_angle_gamma    99.6499

_symmetry_space_group_name_H-M    "P 1"
_symmetry_int_tables_number       1

loop_
  _symmetry_equiv_pos_as_xyz
  'x, y, z'

loop_
  _atom_site_label
  _atom_site_occupancy
  _atom_site_fract_x
  _atom_site_fract_y
  _atom_site_fract_z
  _atom_site_thermal_displace_type
  _atom_site_B_iso_or_equiv
  _atom_site_type_symbol
  Tb1      1.0000 0.75000  0.00000  0.75000  Biso   1.000  Tb
  Tb2      1.0000 0.25000  0.00000  0.25000  Biso   1.000  Tb
  B1       1.0000 0.25000  0.50000  0.75000  Biso   1.000  B 
  B2       1.0000 0.75000  0.50000  0.25000  Biso   1.000  B 
  B3       1.0000 0.18242  0.80108  0.61866  Biso   1.000  B 
  B4       1.0000 0.68241  0.56375  0.88134  Biso   1.000  B 
  B5       1.0000 0.81759  0.19892  0.38134  Biso   1.000  B 
  B6       1.0000 0.31758  0.43625  0.11866  Biso   1.000  B 
  O1       1.0000 0.04784  0.24379  0.49941  Biso   1.000  O 
  O2       1.0000 0.33733  0.90157  0.56424  Biso   1.000  O 
  O3       1.0000 0.83733  0.77309  0.93576  Biso   1.000  O 
  O4       1.0000 0.66267  0.09843  0.43576  Biso   1.000  O 
  O5       1.0000 0.45216  0.45158  0.69595  Biso   1.000  O 
  O6       1.0000 0.25563  0.75621  0.80405  Biso   1.000  O 
  O7       1.0000 0.54783  0.54842  0.30405  Biso   1.000  O 
  O8       1.0000 0.74438  0.24379  0.19596  Biso   1.000  O 
  O9       1.0000 0.95217  0.75621  0.50058  Biso   1.000  O 
  O10      1.0000 0.75562  0.45158  0.99942  Biso   1.000  O 
  O11      1.0000 0.16267  0.22691  0.06424  Biso   1.000  O 
  O12      1.0000 0.24438  0.54842  0.00058  Biso   1.000  O 
