data_image0
_cell_length_a       5.46281
_cell_length_b       5.46281
_cell_length_c       5.46281
_cell_angle_alpha    56.4307
_cell_angle_beta     56.4307
_cell_angle_gamma    56.4307

_symmetry_space_group_name_H-M    "P 1"
_symmetry_int_tables_number       1

loop_
  _symmetry_equiv_pos_as_xyz
  'x, y, z'

loop_
  _atom_site_label
  _atom_site_occupancy
  _atom_site_fract_x
  _atom_site_fract_y
  _atom_site_fract_z
  _atom_site_thermal_displace_type
  _atom_site_B_iso_or_equiv
  _atom_site_type_symbol
  Li1      1.0000 0.50000  0.50000  0.50000  Biso   1.000  Li
  Rh1      1.0000 0.00000  0.00000  0.00000  Biso   1.000  Rh
  F1       1.0000 0.36024  0.76162  0.11846  Biso   1.000  F 
  F2       1.0000 0.76162  0.11846  0.36024  Biso   1.000  F 
  F3       1.0000 0.88154  0.63976  0.23838  Biso   1.000  F 
  F4       1.0000 0.11846  0.36024  0.76162  Biso   1.000  F 
  F5       1.0000 0.23838  0.88154  0.63976  Biso   1.000  F 
  F6       1.0000 0.63976  0.23838  0.88154  Biso   1.000  F 
