data_image0
_cell_length_a       6.36442
_cell_length_b       6.36442
_cell_length_c       6.36442
_cell_angle_alpha    33.3793
_cell_angle_beta     33.3793
_cell_angle_gamma    33.3793

_symmetry_space_group_name_H-M    "P 1"
_symmetry_int_tables_number       1

loop_
  _symmetry_equiv_pos_as_xyz
  'x, y, z'

loop_
  _atom_site_label
  _atom_site_occupancy
  _atom_site_fract_x
  _atom_site_fract_y
  _atom_site_fract_z
  _atom_site_thermal_displace_type
  _atom_site_B_iso_or_equiv
  _atom_site_type_symbol
  Sr1      1.0000 0.00000  0.00000  0.00000  Biso   1.000  Sr
  Ce1      1.0000 0.50000  0.50000  0.50000  Biso   1.000  Ce
  N1       1.0000 0.76458  0.76458  0.76458  Biso   1.000  N 
  N2       1.0000 0.23542  0.23542  0.23542  Biso   1.000  N 
