data_image0
_cell_length_a       10.5087
_cell_length_b       10.5087
_cell_length_c       10.3117
_cell_angle_alpha    90
_cell_angle_beta     90
_cell_angle_gamma    120

_symmetry_space_group_name_H-M    "P 1"
_symmetry_int_tables_number       1

loop_
  _symmetry_equiv_pos_as_xyz
  'x, y, z'

loop_
  _atom_site_label
  _atom_site_occupancy
  _atom_site_fract_x
  _atom_site_fract_y
  _atom_site_fract_z
  _atom_site_thermal_displace_type
  _atom_site_B_iso_or_equiv
  _atom_site_type_symbol
  Sr1      1.0000 0.66667  0.33333  0.25000  Biso   1.000  Sr
  Sr2      1.0000 0.33333  0.66667  0.75000  Biso   1.000  Sr
  Sr3      1.0000 0.00000  0.00000  0.75000  Biso   1.000  Sr
  Sr4      1.0000 0.00000  0.00000  0.25000  Biso   1.000  Sr
  Mg1      1.0000 0.16513  0.33026  0.52081  Biso   1.000  Mg
  Mg2      1.0000 0.66974  0.83487  0.52081  Biso   1.000  Mg
  Mg3      1.0000 0.16513  0.83487  0.52081  Biso   1.000  Mg
  Mg4      1.0000 0.83487  0.16513  0.02081  Biso   1.000  Mg
  Mg5      1.0000 0.33333  0.66667  0.10213  Biso   1.000  Mg
  Mg6      1.0000 0.66667  0.33333  0.60213  Biso   1.000  Mg
  Mg7      1.0000 0.66667  0.33333  0.89787  Biso   1.000  Mg
  Mg8      1.0000 0.33333  0.66667  0.39787  Biso   1.000  Mg
  Mg9      1.0000 0.50000  0.00000  0.00000  Biso   1.000  Mg
  Mg10     1.0000 0.50000  0.50000  0.50000  Biso   1.000  Mg
  Mg11     1.0000 0.00000  0.50000  0.50000  Biso   1.000  Mg
  Mg12     1.0000 0.00000  0.50000  0.00000  Biso   1.000  Mg
  Mg13     1.0000 0.50000  0.50000  0.00000  Biso   1.000  Mg
  Mg14     1.0000 0.50000  0.00000  0.50000  Biso   1.000  Mg
  Mg15     1.0000 0.32901  0.96149  0.25000  Biso   1.000  Mg
  Mg16     1.0000 0.36753  0.32901  0.75000  Biso   1.000  Mg
  Mg17     1.0000 0.96149  0.63247  0.75000  Biso   1.000  Mg
  Mg18     1.0000 0.03851  0.36753  0.25000  Biso   1.000  Mg
  Mg19     1.0000 0.63247  0.67099  0.25000  Biso   1.000  Mg
  Mg20     1.0000 0.36753  0.03851  0.75000  Biso   1.000  Mg
  Mg21     1.0000 0.67099  0.63247  0.75000  Biso   1.000  Mg
  Mg22     1.0000 0.67099  0.03851  0.75000  Biso   1.000  Mg
  Mg23     1.0000 0.96149  0.32901  0.75000  Biso   1.000  Mg
  Mg24     1.0000 0.03851  0.67099  0.25000  Biso   1.000  Mg
  Mg25     1.0000 0.63247  0.96149  0.25000  Biso   1.000  Mg
  Mg26     1.0000 0.32901  0.36753  0.25000  Biso   1.000  Mg
  Mg27     1.0000 0.16513  0.83487  0.97919  Biso   1.000  Mg
  Mg28     1.0000 0.33026  0.16513  0.47919  Biso   1.000  Mg
  Mg29     1.0000 0.83487  0.66974  0.47919  Biso   1.000  Mg
  Mg30     1.0000 0.16513  0.33026  0.97919  Biso   1.000  Mg
  Mg31     1.0000 0.66974  0.83487  0.97919  Biso   1.000  Mg
  Mg32     1.0000 0.33026  0.16513  0.02081  Biso   1.000  Mg
  Mg33     1.0000 0.83487  0.66974  0.02081  Biso   1.000  Mg
  Mg34     1.0000 0.83487  0.16513  0.47919  Biso   1.000  Mg
