data_image0
_cell_length_a       8.46324
_cell_length_b       8.46324
_cell_length_c       11.5709
_cell_angle_alpha    90
_cell_angle_beta     90
_cell_angle_gamma    149.24

_symmetry_space_group_name_H-M    "P 1"
_symmetry_int_tables_number       1

loop_
  _symmetry_equiv_pos_as_xyz
  'x, y, z'

loop_
  _atom_site_label
  _atom_site_occupancy
  _atom_site_fract_x
  _atom_site_fract_y
  _atom_site_fract_z
  _atom_site_thermal_displace_type
  _atom_site_B_iso_or_equiv
  _atom_site_type_symbol
  Cs1      1.0000 0.25544  0.74456  0.75000  Biso   1.000  Cs
  Cs2      1.0000 0.74456  0.25544  0.25000  Biso   1.000  Cs
  La1      1.0000 0.00000  0.00000  0.50000  Biso   1.000  La
  La2      1.0000 0.00000  0.00000  0.00000  Biso   1.000  La
  Hg1      1.0000 0.45917  0.54083  0.25000  Biso   1.000  Hg
  Hg2      1.0000 0.54083  0.45917  0.75000  Biso   1.000  Hg
  Se1      1.0000 0.06255  0.93745  0.25000  Biso   1.000  Se
  Se2      1.0000 0.93745  0.06255  0.75000  Biso   1.000  Se
  Se3      1.0000 0.62112  0.37888  0.55151  Biso   1.000  Se
  Se4      1.0000 0.62112  0.37888  0.94849  Biso   1.000  Se
  Se5      1.0000 0.37888  0.62112  0.05151  Biso   1.000  Se
  Se6      1.0000 0.37888  0.62112  0.44849  Biso   1.000  Se
