data_image0
_cell_length_a       7.63942
_cell_length_b       7.63942
_cell_length_c       7.63942
_cell_angle_alpha    60
_cell_angle_beta     60
_cell_angle_gamma    60

_symmetry_space_group_name_H-M    "P 1"
_symmetry_int_tables_number       1

loop_
  _symmetry_equiv_pos_as_xyz
  'x, y, z'

loop_
  _atom_site_label
  _atom_site_occupancy
  _atom_site_fract_x
  _atom_site_fract_y
  _atom_site_fract_z
  _atom_site_thermal_displace_type
  _atom_site_B_iso_or_equiv
  _atom_site_type_symbol
  Cs1      1.0000 0.25000  0.25000  0.25000  Biso   1.000  Cs
  Cs2      1.0000 0.75000  0.75000  0.75000  Biso   1.000  Cs
  Ta1      1.0000 0.50000  0.50000  0.50000  Biso   1.000  Ta
  Cu1      1.0000 0.00000  0.00000  0.00000  Biso   1.000  Cu
  Br1      1.0000 0.25344  0.25344  0.74656  Biso   1.000  Br
  Br2      1.0000 0.25344  0.74656  0.74656  Biso   1.000  Br
  Br3      1.0000 0.74656  0.74656  0.25344  Biso   1.000  Br
  Br4      1.0000 0.25344  0.74656  0.25344  Biso   1.000  Br
  Br5      1.0000 0.74656  0.25344  0.74656  Biso   1.000  Br
  Br6      1.0000 0.74656  0.25344  0.25344  Biso   1.000  Br
