data_image0
_cell_length_a       6.60657
_cell_length_b       6.57774
_cell_length_c       8.83689
_cell_angle_alpha    73.0335
_cell_angle_beta     90
_cell_angle_gamma    90

_symmetry_space_group_name_H-M    "P 1"
_symmetry_int_tables_number       1

loop_
  _symmetry_equiv_pos_as_xyz
  'x, y, z'

loop_
  _atom_site_label
  _atom_site_occupancy
  _atom_site_fract_x
  _atom_site_fract_y
  _atom_site_fract_z
  _atom_site_thermal_displace_type
  _atom_site_B_iso_or_equiv
  _atom_site_type_symbol
  K1       1.0000 0.75000  0.27382  0.93392  Biso   1.000  K 
  K2       1.0000 0.25000  0.72618  0.06608  Biso   1.000  K 
  Ce1      1.0000 0.75000  0.23210  0.44891  Biso   1.000  Ce
  Ce2      1.0000 0.25000  0.76790  0.55109  Biso   1.000  Ce
  Si1      1.0000 0.75000  0.78363  0.31844  Biso   1.000  Si
  Si2      1.0000 0.25000  0.21637  0.68156  Biso   1.000  Si
  S1       1.0000 0.50142  0.00380  0.72088  Biso   1.000  S 
  S2       1.0000 0.00142  0.99620  0.27912  Biso   1.000  S 
  S3       1.0000 0.49858  0.99620  0.27912  Biso   1.000  S 
  S4       1.0000 0.99858  0.00380  0.72088  Biso   1.000  S 
  S5       1.0000 0.75000  0.58577  0.16833  Biso   1.000  S 
  S6       1.0000 0.25000  0.41423  0.83167  Biso   1.000  S 
  S7       1.0000 0.75000  0.60211  0.56270  Biso   1.000  S 
  S8       1.0000 0.25000  0.39789  0.43730  Biso   1.000  S 
