data_image0
_cell_length_a       8.25774
_cell_length_b       8.25774
_cell_length_c       8.25774
_cell_angle_alpha    120.279
_cell_angle_beta     120.279
_cell_angle_gamma    89.517

_symmetry_space_group_name_H-M    "P 1"
_symmetry_int_tables_number       1

loop_
  _symmetry_equiv_pos_as_xyz
  'x, y, z'

loop_
  _atom_site_label
  _atom_site_occupancy
  _atom_site_fract_x
  _atom_site_fract_y
  _atom_site_fract_z
  _atom_site_thermal_displace_type
  _atom_site_B_iso_or_equiv
  _atom_site_type_symbol
  Ba1      1.0000 0.75000  0.75000  0.00000  Biso   1.000  Ba
  Ba2      1.0000 0.25000  0.25000  0.00000  Biso   1.000  Ba
  Cu1      1.0000 0.43579  0.70485  0.14064  Biso   1.000  Cu
  Cu2      1.0000 0.70485  0.56421  0.26905  Biso   1.000  Cu
  Cu3      1.0000 0.29515  0.43579  0.73095  Biso   1.000  Cu
  Cu4      1.0000 0.93579  0.79515  0.73095  Biso   1.000  Cu
  Cu5      1.0000 0.56421  0.29515  0.85936  Biso   1.000  Cu
  Cu6      1.0000 0.30451  0.55947  0.50000  Biso   1.000  Cu
  Cu7      1.0000 0.05947  0.80451  0.50000  Biso   1.000  Cu
  Cu8      1.0000 0.69549  0.44053  0.50000  Biso   1.000  Cu
  Cu9      1.0000 0.94053  0.19549  0.50000  Biso   1.000  Cu
  Cu10     1.0000 0.44053  0.94053  0.74504  Biso   1.000  Cu
  Cu11     1.0000 0.19549  0.69549  0.25496  Biso   1.000  Cu
  Cu12     1.0000 0.55947  0.05947  0.25496  Biso   1.000  Cu
  Cu13     1.0000 0.20485  0.93579  0.14064  Biso   1.000  Cu
  Cu14     1.0000 0.06421  0.20485  0.26905  Biso   1.000  Cu
  Cu15     1.0000 0.00000  0.50000  0.50000  Biso   1.000  Cu
  Cu16     1.0000 0.50000  0.00000  0.50000  Biso   1.000  Cu
  Cu17     1.0000 0.80451  0.30451  0.74504  Biso   1.000  Cu
  Cu18     1.0000 0.79515  0.06421  0.85936  Biso   1.000  Cu
  Si1      1.0000 0.29054  0.79054  0.85072  Biso   1.000  Si
  Si2      1.0000 0.06018  0.56017  0.85072  Biso   1.000  Si
  Si3      1.0000 0.56017  0.70946  0.50000  Biso   1.000  Si
  Si4      1.0000 0.79054  0.93983  0.50000  Biso   1.000  Si
  Si5      1.0000 0.43983  0.29054  0.50000  Biso   1.000  Si
  Si6      1.0000 0.93983  0.43983  0.14928  Biso   1.000  Si
  Si7      1.0000 0.70946  0.20946  0.14928  Biso   1.000  Si
  Si8      1.0000 0.20946  0.06018  0.50000  Biso   1.000  Si
