data_image0
_cell_length_a       13.7455
_cell_length_b       13.7455
_cell_length_c       8.52993
_cell_angle_alpha    90
_cell_angle_beta     90
_cell_angle_gamma    90

_symmetry_space_group_name_H-M    "P 1"
_symmetry_int_tables_number       1

loop_
  _symmetry_equiv_pos_as_xyz
  'x, y, z'

loop_
  _atom_site_label
  _atom_site_occupancy
  _atom_site_fract_x
  _atom_site_fract_y
  _atom_site_fract_z
  _atom_site_thermal_displace_type
  _atom_site_B_iso_or_equiv
  _atom_site_type_symbol
  Cs1      1.0000 0.10085  0.30196  0.73209  Biso   1.000  Cs
  Cs2      1.0000 0.89915  0.69804  0.73209  Biso   1.000  Cs
  Cs3      1.0000 0.80196  0.89915  0.98209  Biso   1.000  Cs
  Cs4      1.0000 0.19804  0.10085  0.98209  Biso   1.000  Cs
  Cs5      1.0000 0.10074  0.80132  0.48741  Biso   1.000  Cs
  Cs6      1.0000 0.89926  0.19868  0.48741  Biso   1.000  Cs
  Cs7      1.0000 0.30132  0.89926  0.73741  Biso   1.000  Cs
  Cs8      1.0000 0.69868  0.10074  0.73741  Biso   1.000  Cs
  Cs9      1.0000 0.00000  0.50000  0.98544  Biso   1.000  Cs
  Cs10     1.0000 0.00000  0.00000  0.23544  Biso   1.000  Cs
  Cs11     1.0000 0.60085  0.80196  0.23209  Biso   1.000  Cs
  Cs12     1.0000 0.39915  0.19804  0.23209  Biso   1.000  Cs
  Cs13     1.0000 0.30196  0.39915  0.48209  Biso   1.000  Cs
  Cs14     1.0000 0.69804  0.60085  0.48209  Biso   1.000  Cs
  Cs15     1.0000 0.60074  0.30132  0.98741  Biso   1.000  Cs
  Cs16     1.0000 0.39926  0.69868  0.98741  Biso   1.000  Cs
  Cs17     1.0000 0.80132  0.39926  0.23741  Biso   1.000  Cs
  Cs18     1.0000 0.19868  0.60074  0.23741  Biso   1.000  Cs
  Cs19     1.0000 0.50000  0.00000  0.48544  Biso   1.000  Cs
  Cs20     1.0000 0.50000  0.50000  0.73544  Biso   1.000  Cs
  Ru1      1.0000 0.00000  0.00000  0.73470  Biso   1.000  Ru
  Ru2      1.0000 0.00000  0.50000  0.48470  Biso   1.000  Ru
  Ru3      1.0000 0.20026  0.09968  0.48563  Biso   1.000  Ru
  Ru4      1.0000 0.79974  0.90032  0.48563  Biso   1.000  Ru
  Ru5      1.0000 0.09968  0.29974  0.23563  Biso   1.000  Ru
  Ru6      1.0000 0.90032  0.70026  0.23563  Biso   1.000  Ru
  Ru7      1.0000 0.90021  0.20009  0.98415  Biso   1.000  Ru
  Ru8      1.0000 0.09979  0.79991  0.98415  Biso   1.000  Ru
  Ru9      1.0000 0.70009  0.09979  0.23415  Biso   1.000  Ru
  Ru10     1.0000 0.29991  0.90021  0.23415  Biso   1.000  Ru
  Ru11     1.0000 0.50000  0.50000  0.23470  Biso   1.000  Ru
  Ru12     1.0000 0.50000  0.00000  0.98470  Biso   1.000  Ru
  Ru13     1.0000 0.70026  0.59968  0.98563  Biso   1.000  Ru
  Ru14     1.0000 0.29974  0.40032  0.98563  Biso   1.000  Ru
  Ru15     1.0000 0.59968  0.79974  0.73563  Biso   1.000  Ru
  Ru16     1.0000 0.40032  0.20026  0.73563  Biso   1.000  Ru
  Ru17     1.0000 0.40021  0.70009  0.48415  Biso   1.000  Ru
  Ru18     1.0000 0.59979  0.29991  0.48415  Biso   1.000  Ru
  Ru19     1.0000 0.20009  0.59979  0.73415  Biso   1.000  Ru
  Ru20     1.0000 0.79991  0.40021  0.73415  Biso   1.000  Ru
  N1       1.0000 0.10074  0.04878  0.60994  Biso   1.000  N 
  N2       1.0000 0.89926  0.95122  0.60994  Biso   1.000  N 
  N3       1.0000 0.04878  0.39926  0.35994  Biso   1.000  N 
  N4       1.0000 0.95122  0.60074  0.35994  Biso   1.000  N 
  N5       1.0000 0.60066  0.04914  0.10959  Biso   1.000  N 
  N6       1.0000 0.39934  0.95086  0.10959  Biso   1.000  N 
  N7       1.0000 0.04914  0.89934  0.85959  Biso   1.000  N 
  N8       1.0000 0.95086  0.10066  0.85959  Biso   1.000  N 
  N9       1.0000 0.29987  0.15027  0.61128  Biso   1.000  N 
  N10      1.0000 0.70013  0.84973  0.61128  Biso   1.000  N 
  N11      1.0000 0.15027  0.20013  0.36128  Biso   1.000  N 
  N12      1.0000 0.84973  0.79987  0.36128  Biso   1.000  N 
  N13      1.0000 0.79977  0.15033  0.10869  Biso   1.000  N 
  N14      1.0000 0.20023  0.84967  0.10869  Biso   1.000  N 
  N15      1.0000 0.15033  0.70023  0.85869  Biso   1.000  N 
  N16      1.0000 0.84967  0.29977  0.85869  Biso   1.000  N 
  N17      1.0000 0.00004  0.24974  0.10970  Biso   1.000  N 
  N18      1.0000 0.99996  0.75026  0.10970  Biso   1.000  N 
  N19      1.0000 0.74974  0.99996  0.35970  Biso   1.000  N 
  N20      1.0000 0.25026  0.00004  0.35970  Biso   1.000  N 
  N21      1.0000 0.60074  0.54878  0.10994  Biso   1.000  N 
  N22      1.0000 0.39926  0.45122  0.10994  Biso   1.000  N 
  N23      1.0000 0.54878  0.89926  0.85994  Biso   1.000  N 
  N24      1.0000 0.45122  0.10074  0.85994  Biso   1.000  N 
  N25      1.0000 0.10066  0.54914  0.60959  Biso   1.000  N 
  N26      1.0000 0.89934  0.45086  0.60959  Biso   1.000  N 
  N27      1.0000 0.54914  0.39934  0.35959  Biso   1.000  N 
  N28      1.0000 0.45086  0.60066  0.35959  Biso   1.000  N 
  N29      1.0000 0.79987  0.65027  0.11128  Biso   1.000  N 
  N30      1.0000 0.20013  0.34973  0.11128  Biso   1.000  N 
  N31      1.0000 0.65027  0.70013  0.86128  Biso   1.000  N 
  N32      1.0000 0.34973  0.29987  0.86128  Biso   1.000  N 
  N33      1.0000 0.29977  0.65033  0.60869  Biso   1.000  N 
  N34      1.0000 0.70023  0.34967  0.60869  Biso   1.000  N 
  N35      1.0000 0.65033  0.20023  0.35869  Biso   1.000  N 
  N36      1.0000 0.34967  0.79977  0.35869  Biso   1.000  N 
  N37      1.0000 0.50004  0.74974  0.60970  Biso   1.000  N 
  N38      1.0000 0.49996  0.25026  0.60970  Biso   1.000  N 
  N39      1.0000 0.24974  0.49996  0.85970  Biso   1.000  N 
  N40      1.0000 0.75026  0.50004  0.85970  Biso   1.000  N 
