data_image0
_cell_length_a       3.85151
_cell_length_b       7.7013
_cell_length_c       9.00658
_cell_angle_alpha    90
_cell_angle_beta     90
_cell_angle_gamma    90

_symmetry_space_group_name_H-M    "P 1"
_symmetry_int_tables_number       1

loop_
  _symmetry_equiv_pos_as_xyz
  'x, y, z'

loop_
  _atom_site_label
  _atom_site_occupancy
  _atom_site_fract_x
  _atom_site_fract_y
  _atom_site_fract_z
  _atom_site_thermal_displace_type
  _atom_site_B_iso_or_equiv
  _atom_site_type_symbol
  W1       1.0000 0.00661  0.75000  0.00000  Biso   1.000  W 
  W2       1.0000 0.99339  0.25000  0.00000  Biso   1.000  W 
  Br1      1.0000 0.99720  0.75000  0.72238  Biso   1.000  Br
  Br2      1.0000 0.99720  0.75000  0.27762  Biso   1.000  Br
  Br3      1.0000 0.00281  0.25000  0.72238  Biso   1.000  Br
  Br4      1.0000 0.00281  0.25000  0.27762  Biso   1.000  Br
  O1       1.0000 0.50110  0.75000  0.00000  Biso   1.000  O 
  O2       1.0000 0.00000  0.50000  0.00000  Biso   1.000  O 
  O3       1.0000 0.49890  0.25000  0.00000  Biso   1.000  O 
  O4       1.0000 0.00000  0.00000  0.00000  Biso   1.000  O 
