data_image0
_cell_length_a       7.32592
_cell_length_b       7.32592
_cell_length_c       7.32592
_cell_angle_alpha    60
_cell_angle_beta     60
_cell_angle_gamma    60

_symmetry_space_group_name_H-M    "P 1"
_symmetry_int_tables_number       1

loop_
  _symmetry_equiv_pos_as_xyz
  'x, y, z'

loop_
  _atom_site_label
  _atom_site_occupancy
  _atom_site_fract_x
  _atom_site_fract_y
  _atom_site_fract_z
  _atom_site_thermal_displace_type
  _atom_site_B_iso_or_equiv
  _atom_site_type_symbol
  Rb1      1.0000 0.75000  0.75000  0.75000  Biso   1.000  Rb
  Rb2      1.0000 0.25000  0.25000  0.25000  Biso   1.000  Rb
  Er1      1.0000 0.00000  0.00000  0.00000  Biso   1.000  Er
  Cu1      1.0000 0.50000  0.50000  0.50000  Biso   1.000  Cu
  Cl1      1.0000 0.74760  0.25240  0.25240  Biso   1.000  Cl
  Cl2      1.0000 0.25240  0.25240  0.74760  Biso   1.000  Cl
  Cl3      1.0000 0.25240  0.74760  0.74760  Biso   1.000  Cl
  Cl4      1.0000 0.25240  0.74760  0.25240  Biso   1.000  Cl
  Cl5      1.0000 0.74760  0.25240  0.74760  Biso   1.000  Cl
  Cl6      1.0000 0.74760  0.74760  0.25240  Biso   1.000  Cl
