data_image0
_cell_length_a       5.27898
_cell_length_b       11.8027
_cell_length_c       13.8758
_cell_angle_alpha    90
_cell_angle_beta     90
_cell_angle_gamma    90

_symmetry_space_group_name_H-M    "P 1"
_symmetry_int_tables_number       1

loop_
  _symmetry_equiv_pos_as_xyz
  'x, y, z'

loop_
  _atom_site_label
  _atom_site_occupancy
  _atom_site_fract_x
  _atom_site_fract_y
  _atom_site_fract_z
  _atom_site_thermal_displace_type
  _atom_site_B_iso_or_equiv
  _atom_site_type_symbol
  Na1      1.0000 0.76007  0.32884  0.74663  Biso   1.000  Na
  Na2      1.0000 0.26007  0.17116  0.24663  Biso   1.000  Na
  Na3      1.0000 0.73993  0.32884  0.24663  Biso   1.000  Na
  Na4      1.0000 0.23993  0.67116  0.25337  Biso   1.000  Na
  Na5      1.0000 0.23993  0.17116  0.74663  Biso   1.000  Na
  Na6      1.0000 0.73993  0.82884  0.75337  Biso   1.000  Na
  Na7      1.0000 0.26007  0.67116  0.75337  Biso   1.000  Na
  Na8      1.0000 0.76007  0.82884  0.25337  Biso   1.000  Na
  Na9      1.0000 0.74358  0.08082  0.62321  Biso   1.000  Na
  Na10     1.0000 0.24358  0.91918  0.87679  Biso   1.000  Na
  Na11     1.0000 0.75642  0.58082  0.87679  Biso   1.000  Na
  Na12     1.0000 0.74358  0.58082  0.37678  Biso   1.000  Na
  Na13     1.0000 0.25642  0.91918  0.37678  Biso   1.000  Na
  Na14     1.0000 0.75642  0.08082  0.12322  Biso   1.000  Na
  Na15     1.0000 0.24358  0.41918  0.12322  Biso   1.000  Na
  Na16     1.0000 0.25642  0.41918  0.62321  Biso   1.000  Na
  Mg1      1.0000 0.72138  0.32400  0.51282  Biso   1.000  Mg
  Mg2      1.0000 0.22138  0.67600  0.98718  Biso   1.000  Mg
  Mg3      1.0000 0.77862  0.82400  0.98718  Biso   1.000  Mg
  Mg4      1.0000 0.27862  0.17600  0.51282  Biso   1.000  Mg
  Mg5      1.0000 0.27862  0.67600  0.48718  Biso   1.000  Mg
  Mg6      1.0000 0.77862  0.32400  0.01282  Biso   1.000  Mg
  Mg7      1.0000 0.22138  0.17600  0.01282  Biso   1.000  Mg
  Mg8      1.0000 0.72138  0.82400  0.48718  Biso   1.000  Mg
  P1       1.0000 0.79190  0.08750  0.38247  Biso   1.000  P 
  P2       1.0000 0.29190  0.91250  0.11753  Biso   1.000  P 
  P3       1.0000 0.70810  0.58750  0.11753  Biso   1.000  P 
  P4       1.0000 0.20810  0.41250  0.38247  Biso   1.000  P 
  P5       1.0000 0.20810  0.91250  0.61753  Biso   1.000  P 
  P6       1.0000 0.70810  0.08750  0.88247  Biso   1.000  P 
  P7       1.0000 0.29190  0.41250  0.88247  Biso   1.000  P 
  P8       1.0000 0.79190  0.58750  0.61753  Biso   1.000  P 
  O1       1.0000 0.23429  0.54142  0.89136  Biso   1.000  O 
  O2       1.0000 0.21087  0.36879  0.78258  Biso   1.000  O 
  O3       1.0000 0.78913  0.13121  0.78258  Biso   1.000  O 
  O4       1.0000 0.28913  0.86879  0.71742  Biso   1.000  O 
  O5       1.0000 0.28913  0.36879  0.28258  Biso   1.000  O 
  O6       1.0000 0.78913  0.63121  0.21742  Biso   1.000  O 
  O7       1.0000 0.21087  0.86879  0.21742  Biso   1.000  O 
  O8       1.0000 0.71087  0.13121  0.28258  Biso   1.000  O 
  O9       1.0000 0.08319  0.60720  0.60146  Biso   1.000  O 
  O10      1.0000 0.58319  0.39280  0.89854  Biso   1.000  O 
  O11      1.0000 0.41681  0.10720  0.89854  Biso   1.000  O 
  O12      1.0000 0.91681  0.89280  0.60146  Biso   1.000  O 
  O13      1.0000 0.91681  0.39280  0.39854  Biso   1.000  O 
  O14      1.0000 0.41681  0.60720  0.10146  Biso   1.000  O 
  O15      1.0000 0.58319  0.89280  0.10146  Biso   1.000  O 
  O16      1.0000 0.08319  0.10720  0.39854  Biso   1.000  O 
  O17      1.0000 0.73429  0.45858  0.60864  Biso   1.000  O 
  O18      1.0000 0.71087  0.63121  0.71742  Biso   1.000  O 
  O19      1.0000 0.76571  0.95858  0.89136  Biso   1.000  O 
  O20      1.0000 0.64577  0.15246  0.46341  Biso   1.000  O 
  O21      1.0000 0.26571  0.54142  0.39136  Biso   1.000  O 
  O22      1.0000 0.76571  0.45858  0.10864  Biso   1.000  O 
  O23      1.0000 0.23429  0.04142  0.10864  Biso   1.000  O 
  O24      1.0000 0.73429  0.95858  0.39136  Biso   1.000  O 
  O25      1.0000 0.64577  0.65246  0.53659  Biso   1.000  O 
  O26      1.0000 0.14577  0.34753  0.96341  Biso   1.000  O 
  O27      1.0000 0.85423  0.15246  0.96341  Biso   1.000  O 
  O28      1.0000 0.35423  0.84754  0.53659  Biso   1.000  O 
  O29      1.0000 0.35423  0.34753  0.46341  Biso   1.000  O 
  O30      1.0000 0.85423  0.65246  0.03659  Biso   1.000  O 
  O31      1.0000 0.14577  0.84754  0.03659  Biso   1.000  O 
  O32      1.0000 0.26571  0.04142  0.60864  Biso   1.000  O 
  F1       1.0000 0.50000  0.75000  0.37722  Biso   1.000  F 
  F2       1.0000 0.00000  0.25000  0.12278  Biso   1.000  F 
  F3       1.0000 0.50000  0.25000  0.62278  Biso   1.000  F 
  F4       1.0000 0.00000  0.75000  0.87722  Biso   1.000  F 
  F5       1.0000 0.00000  0.75000  0.41187  Biso   1.000  F 
  F6       1.0000 0.50000  0.25000  0.08813  Biso   1.000  F 
  F7       1.0000 0.00000  0.25000  0.58813  Biso   1.000  F 
  F8       1.0000 0.50000  0.75000  0.91187  Biso   1.000  F 
