data_image0
_cell_length_a       3.22547
_cell_length_b       3.22547
_cell_length_c       15.1886
_cell_angle_alpha    90
_cell_angle_beta     90
_cell_angle_gamma    120

_symmetry_space_group_name_H-M    "P 1"
_symmetry_int_tables_number       1

loop_
  _symmetry_equiv_pos_as_xyz
  'x, y, z'

loop_
  _atom_site_label
  _atom_site_occupancy
  _atom_site_fract_x
  _atom_site_fract_y
  _atom_site_fract_z
  _atom_site_thermal_displace_type
  _atom_site_B_iso_or_equiv
  _atom_site_type_symbol
  V1       1.0000 0.33333  0.66667  0.25000  Biso   1.000  V 
  V2       1.0000 0.66667  0.33333  0.75000  Biso   1.000  V 
  Au1      1.0000 0.00000  0.00000  0.00000  Biso   1.000  Au
  Au2      1.0000 0.00000  0.00000  0.50000  Biso   1.000  Au
  S1       1.0000 0.00000  0.00000  0.34420  Biso   1.000  S 
  S2       1.0000 0.00000  0.00000  0.84420  Biso   1.000  S 
  S3       1.0000 0.00000  0.00000  0.15580  Biso   1.000  S 
  S4       1.0000 0.00000  0.00000  0.65580  Biso   1.000  S 
