data_image0
_cell_length_a       23.0417
_cell_length_b       23.0417
_cell_length_c       4.44039
_cell_angle_alpha    90
_cell_angle_beta     90
_cell_angle_gamma    168.951

_symmetry_space_group_name_H-M    "P 1"
_symmetry_int_tables_number       1

loop_
  _symmetry_equiv_pos_as_xyz
  'x, y, z'

loop_
  _atom_site_label
  _atom_site_occupancy
  _atom_site_fract_x
  _atom_site_fract_y
  _atom_site_fract_z
  _atom_site_thermal_displace_type
  _atom_site_B_iso_or_equiv
  _atom_site_type_symbol
  Nd1      1.0000 0.69404  0.30596  0.25000  Biso   1.000  Nd
  Nd2      1.0000 0.30596  0.69404  0.75000  Biso   1.000  Nd
  Nd3      1.0000 0.89847  0.10153  0.25000  Biso   1.000  Nd
  Nd4      1.0000 0.10153  0.89847  0.75000  Biso   1.000  Nd
  Te1      1.0000 0.62287  0.37713  0.25000  Biso   1.000  Te
  Te2      1.0000 0.37713  0.62287  0.75000  Biso   1.000  Te
  Te3      1.0000 0.82548  0.17452  0.25000  Biso   1.000  Te
  Te4      1.0000 0.17452  0.82548  0.75000  Biso   1.000  Te
  Te5      1.0000 0.95363  0.04637  0.75000  Biso   1.000  Te
  Te6      1.0000 0.04637  0.95363  0.25000  Biso   1.000  Te
  Te7      1.0000 0.54638  0.45362  0.75000  Biso   1.000  Te
  Te8      1.0000 0.45362  0.54638  0.25000  Biso   1.000  Te
  Te9      1.0000 0.74998  0.25002  0.75000  Biso   1.000  Te
  Te10     1.0000 0.25002  0.74998  0.25000  Biso   1.000  Te
