data_image0
_cell_length_a       11.024
_cell_length_b       11.024
_cell_length_c       11.024
_cell_angle_alpha    102.084
_cell_angle_beta     102.084
_cell_angle_gamma    125.543

_symmetry_space_group_name_H-M    "P 1"
_symmetry_int_tables_number       1

loop_
  _symmetry_equiv_pos_as_xyz
  'x, y, z'

loop_
  _atom_site_label
  _atom_site_occupancy
  _atom_site_fract_x
  _atom_site_fract_y
  _atom_site_fract_z
  _atom_site_thermal_displace_type
  _atom_site_B_iso_or_equiv
  _atom_site_type_symbol
  Cs1      1.0000 0.83577  0.55074  0.86906  Biso   1.000  Cs
  Cs2      1.0000 0.68168  0.96671  0.13094  Biso   1.000  Cs
  Cs3      1.0000 0.80074  0.43168  0.21497  Biso   1.000  Cs
  Cs4      1.0000 0.21671  0.58577  0.78503  Biso   1.000  Cs
  Cs5      1.0000 0.51868  0.69606  0.34403  Biso   1.000  Cs
  Cs6      1.0000 0.35203  0.17466  0.65597  Biso   1.000  Cs
  Cs7      1.0000 0.94606  0.10203  0.67738  Biso   1.000  Cs
  Cs8      1.0000 0.42466  0.26869  0.32262  Biso   1.000  Cs
  Cs9      1.0000 0.97999  0.97999  0.00000  Biso   1.000  Cs
  Cs10     1.0000 0.22999  0.72999  0.50000  Biso   1.000  Cs
  Cs11     1.0000 0.72140  0.22140  0.50000  Biso   1.000  Cs
  Cs12     1.0000 0.47140  0.47140  0.00000  Biso   1.000  Cs
  W1       1.0000 0.62772  0.05777  0.81612  Biso   1.000  W 
  W2       1.0000 0.24165  0.81160  0.18388  Biso   1.000  W 
  W3       1.0000 0.30777  0.99165  0.93005  Biso   1.000  W 
  W4       1.0000 0.06160  0.37772  0.06995  Biso   1.000  W 
  W5       1.0000 0.93681  0.76366  0.61842  Biso   1.000  W 
  W6       1.0000 0.14524  0.31839  0.38158  Biso   1.000  W 
  W7       1.0000 0.01366  0.89524  0.32685  Biso   1.000  W 
  W8       1.0000 0.56839  0.68681  0.67315  Biso   1.000  W 
  N1       1.0000 0.62926  0.17809  0.72999  Biso   1.000  N 
  N2       1.0000 0.44810  0.89927  0.27001  Biso   1.000  N 
  N3       1.0000 0.42809  0.19811  0.04883  Biso   1.000  N 
  N4       1.0000 0.14927  0.37926  0.95117  Biso   1.000  N 
  N5       1.0000 0.83254  0.74709  0.17241  Biso   1.000  N 
  N6       1.0000 0.57468  0.66013  0.82759  Biso   1.000  N 
  N7       1.0000 0.99709  0.32468  0.41455  Biso   1.000  N 
  N8       1.0000 0.91013  0.58254  0.58545  Biso   1.000  N 
  N9       1.0000 0.83022  0.19525  0.97505  Biso   1.000  N 
  N10      1.0000 0.22020  0.85517  0.02495  Biso   1.000  N 
  N11      1.0000 0.44525  0.97020  0.86502  Biso   1.000  N 
  N12      1.0000 0.10517  0.58022  0.13498  Biso   1.000  N 
  N13      1.0000 0.97366  0.83299  0.47367  Biso   1.000  N 
  N14      1.0000 0.35932  0.49999  0.52633  Biso   1.000  N 
  N15      1.0000 0.08299  0.10932  0.35933  Biso   1.000  N 
  N16      1.0000 0.74999  0.72366  0.64067  Biso   1.000  N 
  N17      1.0000 0.13059  0.94132  0.78379  Biso   1.000  N 
  N18      1.0000 0.15754  0.34681  0.21621  Biso   1.000  N 
  N19      1.0000 0.19132  0.90754  0.31073  Biso   1.000  N 
  N20      1.0000 0.59681  0.88059  0.68927  Biso   1.000  N 
