data_image0
_cell_length_a       6.35133
_cell_length_b       12.4598
_cell_length_c       15.4162
_cell_angle_alpha    90
_cell_angle_beta     90
_cell_angle_gamma    90

_symmetry_space_group_name_H-M    "P 1"
_symmetry_int_tables_number       1

loop_
  _symmetry_equiv_pos_as_xyz
  'x, y, z'

loop_
  _atom_site_label
  _atom_site_occupancy
  _atom_site_fract_x
  _atom_site_fract_y
  _atom_site_fract_z
  _atom_site_thermal_displace_type
  _atom_site_B_iso_or_equiv
  _atom_site_type_symbol
  Rb1      1.0000 0.24706  0.00161  0.93510  Biso   1.000  Rb
  Rb2      1.0000 0.74706  0.49839  0.06490  Biso   1.000  Rb
  Rb3      1.0000 0.75294  0.50161  0.56490  Biso   1.000  Rb
  Rb4      1.0000 0.25294  0.99839  0.43510  Biso   1.000  Rb
  Rb5      1.0000 0.75294  0.99839  0.06490  Biso   1.000  Rb
  Rb6      1.0000 0.25294  0.50161  0.93510  Biso   1.000  Rb
  Rb7      1.0000 0.24706  0.49839  0.43510  Biso   1.000  Rb
  Rb8      1.0000 0.74706  0.00161  0.56490  Biso   1.000  Rb
  Rb9      1.0000 0.41310  0.24878  0.80747  Biso   1.000  Rb
  Rb10     1.0000 0.91310  0.25122  0.19253  Biso   1.000  Rb
  Rb11     1.0000 0.58690  0.74878  0.69253  Biso   1.000  Rb
  Rb12     1.0000 0.08690  0.75122  0.30747  Biso   1.000  Rb
  Rb13     1.0000 0.58690  0.75122  0.19253  Biso   1.000  Rb
  Rb14     1.0000 0.08690  0.74878  0.80747  Biso   1.000  Rb
  Rb15     1.0000 0.41310  0.25122  0.30747  Biso   1.000  Rb
  Rb16     1.0000 0.91310  0.24878  0.69253  Biso   1.000  Rb
  Os1      1.0000 0.74298  0.99784  0.81450  Biso   1.000  Os
  Os2      1.0000 0.24297  0.50216  0.18550  Biso   1.000  Os
  Os3      1.0000 0.25703  0.49784  0.68550  Biso   1.000  Os
  Os4      1.0000 0.75702  0.00216  0.31450  Biso   1.000  Os
  Os5      1.0000 0.25703  0.00216  0.18550  Biso   1.000  Os
  Os6      1.0000 0.75702  0.49784  0.81450  Biso   1.000  Os
  Os7      1.0000 0.74298  0.50216  0.31450  Biso   1.000  Os
  Os8      1.0000 0.24297  0.99784  0.68550  Biso   1.000  Os
  Os9      1.0000 0.85588  0.24676  0.94132  Biso   1.000  Os
  Os10     1.0000 0.35588  0.25324  0.05869  Biso   1.000  Os
  Os11     1.0000 0.14412  0.74676  0.55868  Biso   1.000  Os
  Os12     1.0000 0.64412  0.75324  0.44132  Biso   1.000  Os
  Os13     1.0000 0.14412  0.75324  0.05869  Biso   1.000  Os
  Os14     1.0000 0.64412  0.74676  0.94132  Biso   1.000  Os
  Os15     1.0000 0.85588  0.25324  0.44132  Biso   1.000  Os
  Os16     1.0000 0.35588  0.24676  0.55868  Biso   1.000  Os
  N1       1.0000 0.14053  0.24796  0.97251  Biso   1.000  N 
  N2       1.0000 0.64053  0.25204  0.02749  Biso   1.000  N 
  N3       1.0000 0.85947  0.74796  0.52749  Biso   1.000  N 
  N4       1.0000 0.35947  0.75204  0.47251  Biso   1.000  N 
  N5       1.0000 0.85947  0.75204  0.02749  Biso   1.000  N 
  N6       1.0000 0.35947  0.74796  0.97251  Biso   1.000  N 
  N7       1.0000 0.14053  0.25204  0.47251  Biso   1.000  N 
  N8       1.0000 0.64053  0.24796  0.52749  Biso   1.000  N 
  N9       1.0000 0.78916  0.37691  0.88425  Biso   1.000  N 
  N10      1.0000 0.28916  0.12309  0.11575  Biso   1.000  N 
  N11      1.0000 0.21084  0.87691  0.61575  Biso   1.000  N 
  N12      1.0000 0.71084  0.62309  0.38425  Biso   1.000  N 
  N13      1.0000 0.21084  0.62309  0.11575  Biso   1.000  N 
  N14      1.0000 0.71084  0.87691  0.88425  Biso   1.000  N 
  N15      1.0000 0.78916  0.12309  0.38425  Biso   1.000  N 
  N16      1.0000 0.28916  0.37691  0.61575  Biso   1.000  N 
  N17      1.0000 0.79034  0.12223  0.88223  Biso   1.000  N 
  N18      1.0000 0.29034  0.37777  0.11777  Biso   1.000  N 
  N19      1.0000 0.20967  0.62223  0.61777  Biso   1.000  N 
  N20      1.0000 0.70966  0.87777  0.38223  Biso   1.000  N 
  N21      1.0000 0.20967  0.87777  0.11777  Biso   1.000  N 
  N22      1.0000 0.70966  0.62223  0.88223  Biso   1.000  N 
  N23      1.0000 0.79034  0.37777  0.38223  Biso   1.000  N 
  N24      1.0000 0.29034  0.12223  0.61777  Biso   1.000  N 
  N25      1.0000 0.50285  0.50307  0.75059  Biso   1.000  N 
  N26      1.0000 0.00285  0.99693  0.24941  Biso   1.000  N 
  N27      1.0000 0.49715  0.00307  0.74941  Biso   1.000  N 
  N28      1.0000 0.99715  0.49693  0.25059  Biso   1.000  N 
  N29      1.0000 0.49715  0.49693  0.24941  Biso   1.000  N 
  N30      1.0000 0.99715  0.00307  0.75059  Biso   1.000  N 
  N31      1.0000 0.50285  0.99693  0.25059  Biso   1.000  N 
  N32      1.0000 0.00285  0.50307  0.74941  Biso   1.000  N 
