data_image0
_cell_length_a       7.51568
_cell_length_b       7.51568
_cell_length_c       3.92796
_cell_angle_alpha    90
_cell_angle_beta     90
_cell_angle_gamma    120

_symmetry_space_group_name_H-M    "P 1"
_symmetry_int_tables_number       1

loop_
  _symmetry_equiv_pos_as_xyz
  'x, y, z'

loop_
  _atom_site_label
  _atom_site_occupancy
  _atom_site_fract_x
  _atom_site_fract_y
  _atom_site_fract_z
  _atom_site_thermal_displace_type
  _atom_site_B_iso_or_equiv
  _atom_site_type_symbol
  Ho1      1.0000 0.00000  0.40597  0.50000  Biso   1.000  Ho
  Ho2      1.0000 0.59403  0.59403  0.50000  Biso   1.000  Ho
  Ho3      1.0000 0.40597  0.00000  0.50000  Biso   1.000  Ho
  In1      1.0000 0.25757  0.25757  0.00000  Biso   1.000  In
  In2      1.0000 0.00000  0.74243  0.00000  Biso   1.000  In
  In3      1.0000 0.74243  0.00000  0.00000  Biso   1.000  In
  Rh1      1.0000 0.33333  0.66667  0.00000  Biso   1.000  Rh
  Rh2      1.0000 0.00000  0.00000  0.50000  Biso   1.000  Rh
  Rh3      1.0000 0.66667  0.33333  0.00000  Biso   1.000  Rh
