data_image0
_cell_length_a       4.19224
_cell_length_b       7.22547
_cell_length_c       8.52988
_cell_angle_alpha    90
_cell_angle_beta     90
_cell_angle_gamma    90

_symmetry_space_group_name_H-M    "P 1"
_symmetry_int_tables_number       1

loop_
  _symmetry_equiv_pos_as_xyz
  'x, y, z'

loop_
  _atom_site_label
  _atom_site_occupancy
  _atom_site_fract_x
  _atom_site_fract_y
  _atom_site_fract_z
  _atom_site_thermal_displace_type
  _atom_site_B_iso_or_equiv
  _atom_site_type_symbol
  Yb1      1.0000 0.25000  0.02831  0.17624  Biso   1.000  Yb
  Yb2      1.0000 0.75000  0.97169  0.82376  Biso   1.000  Yb
  Yb3      1.0000 0.25000  0.52831  0.32376  Biso   1.000  Yb
  Yb4      1.0000 0.75000  0.47169  0.67624  Biso   1.000  Yb
  In1      1.0000 0.75000  0.35185  0.06253  Biso   1.000  In
  In2      1.0000 0.25000  0.64815  0.93747  Biso   1.000  In
  In3      1.0000 0.75000  0.85185  0.43747  Biso   1.000  In
  In4      1.0000 0.25000  0.14815  0.56253  Biso   1.000  In
  Rh1      1.0000 0.25000  0.76768  0.63323  Biso   1.000  Rh
  Rh2      1.0000 0.75000  0.23232  0.36677  Biso   1.000  Rh
  Rh3      1.0000 0.25000  0.26768  0.86677  Biso   1.000  Rh
  Rh4      1.0000 0.75000  0.73232  0.13323  Biso   1.000  Rh
