data_image0
_cell_length_a       8.48595
_cell_length_b       8.48595
_cell_length_c       11.5532
_cell_angle_alpha    90
_cell_angle_beta     90
_cell_angle_gamma    149.709

_symmetry_space_group_name_H-M    "P 1"
_symmetry_int_tables_number       1

loop_
  _symmetry_equiv_pos_as_xyz
  'x, y, z'

loop_
  _atom_site_label
  _atom_site_occupancy
  _atom_site_fract_x
  _atom_site_fract_y
  _atom_site_fract_z
  _atom_site_thermal_displace_type
  _atom_site_B_iso_or_equiv
  _atom_site_type_symbol
  Cs1      1.0000 0.74494  0.25506  0.25000  Biso   1.000  Cs
  Cs2      1.0000 0.25506  0.74494  0.75000  Biso   1.000  Cs
  Pr1      1.0000 0.00000  0.00000  0.50000  Biso   1.000  Pr
  Pr2      1.0000 0.00000  0.00000  0.00000  Biso   1.000  Pr
  Cd1      1.0000 0.53665  0.46335  0.75000  Biso   1.000  Cd
  Cd2      1.0000 0.46335  0.53665  0.25000  Biso   1.000  Cd
  Se1      1.0000 0.61947  0.38054  0.55420  Biso   1.000  Se
  Se2      1.0000 0.38054  0.61947  0.44580  Biso   1.000  Se
  Se3      1.0000 0.38054  0.61947  0.05420  Biso   1.000  Se
  Se4      1.0000 0.93812  0.06188  0.75000  Biso   1.000  Se
  Se5      1.0000 0.06188  0.93812  0.25000  Biso   1.000  Se
  Se6      1.0000 0.61947  0.38054  0.94580  Biso   1.000  Se
