data_image0
_cell_length_a       8.64847
_cell_length_b       8.64847
_cell_length_c       10.5427
_cell_angle_alpha    52.6812
_cell_angle_beta     52.6812
_cell_angle_gamma    29.0378

_symmetry_space_group_name_H-M    "P 1"
_symmetry_int_tables_number       1

loop_
  _symmetry_equiv_pos_as_xyz
  'x, y, z'

loop_
  _atom_site_label
  _atom_site_occupancy
  _atom_site_fract_x
  _atom_site_fract_y
  _atom_site_fract_z
  _atom_site_thermal_displace_type
  _atom_site_B_iso_or_equiv
  _atom_site_type_symbol
  Nd1      1.0000 0.50000  0.50000  0.00000  Biso   1.000  Nd
  Nd2      1.0000 0.82813  0.82813  0.68447  Biso   1.000  Nd
  Nd3      1.0000 0.17187  0.17187  0.31553  Biso   1.000  Nd
  Sb1      1.0000 0.63926  0.63926  0.59177  Biso   1.000  Sb
  Sb2      1.0000 0.17202  0.17202  0.97465  Biso   1.000  Sb
  Sb3      1.0000 0.82798  0.82798  0.02535  Biso   1.000  Sb
  Sb4      1.0000 0.36074  0.36074  0.40823  Biso   1.000  Sb
  Pt1      1.0000 0.82970  0.82970  0.27165  Biso   1.000  Pt
  Pt2      1.0000 0.62286  0.62287  0.15418  Biso   1.000  Pt
  Pt3      1.0000 0.50000  0.50000  0.50000  Biso   1.000  Pt
  Pt4      1.0000 0.17030  0.17030  0.72835  Biso   1.000  Pt
  Pt5      1.0000 0.98426  0.98426  0.32244  Biso   1.000  Pt
  Pt6      1.0000 0.01574  0.01574  0.67756  Biso   1.000  Pt
  Pt7      1.0000 0.37713  0.37714  0.84582  Biso   1.000  Pt
