data_image0
_cell_length_a       5.92429
_cell_length_b       5.92429
_cell_length_c       5.92429
_cell_angle_alpha    103.942
_cell_angle_beta     103.942
_cell_angle_gamma    103.942

_symmetry_space_group_name_H-M    "P 1"
_symmetry_int_tables_number       1

loop_
  _symmetry_equiv_pos_as_xyz
  'x, y, z'

loop_
  _atom_site_label
  _atom_site_occupancy
  _atom_site_fract_x
  _atom_site_fract_y
  _atom_site_fract_z
  _atom_site_thermal_displace_type
  _atom_site_B_iso_or_equiv
  _atom_site_type_symbol
  Yb1      1.0000 0.00000  0.00000  0.00000  Biso   1.000  Yb
  Al1      1.0000 0.00000  0.55693  0.44307  Biso   1.000  Al
  Al2      1.0000 0.44307  0.00000  0.55693  Biso   1.000  Al
  Al3      1.0000 0.55693  0.44307  0.00000  Biso   1.000  Al
  B1       1.0000 0.50000  0.94143  0.05857  Biso   1.000  B 
  B2       1.0000 0.05857  0.50000  0.94143  Biso   1.000  B 
  B3       1.0000 0.94143  0.05857  0.50000  Biso   1.000  B 
  B4       1.0000 0.50000  0.50000  0.50000  Biso   1.000  B 
  O1       1.0000 0.35184  0.64816  0.50000  Biso   1.000  O 
  O2       1.0000 0.90926  0.50000  0.09074  Biso   1.000  O 
  O3       1.0000 0.50000  0.09074  0.90926  Biso   1.000  O 
  O4       1.0000 0.09074  0.90926  0.50000  Biso   1.000  O 
  O5       1.0000 0.77389  0.02890  0.62319  Biso   1.000  O 
  O6       1.0000 0.02891  0.62319  0.77389  Biso   1.000  O 
  O7       1.0000 0.62319  0.77389  0.02891  Biso   1.000  O 
  O8       1.0000 0.97109  0.22611  0.37681  Biso   1.000  O 
  O9       1.0000 0.22611  0.37681  0.97110  Biso   1.000  O 
  O10      1.0000 0.37681  0.97110  0.22611  Biso   1.000  O 
  O11      1.0000 0.64816  0.50000  0.35184  Biso   1.000  O 
  O12      1.0000 0.50000  0.35184  0.64816  Biso   1.000  O 
