data_image0
_cell_length_a       10.6728
_cell_length_b       10.6728
_cell_length_c       10.6728
_cell_angle_alpha    99.1324
_cell_angle_beta     99.1324
_cell_angle_gamma    133.044

_symmetry_space_group_name_H-M    "P 1"
_symmetry_int_tables_number       1

loop_
  _symmetry_equiv_pos_as_xyz
  'x, y, z'

loop_
  _atom_site_label
  _atom_site_occupancy
  _atom_site_fract_x
  _atom_site_fract_y
  _atom_site_fract_z
  _atom_site_thermal_displace_type
  _atom_site_B_iso_or_equiv
  _atom_site_type_symbol
  Cs1      1.0000 0.84997  0.54892  0.90163  Biso   1.000  Cs
  Cs2      1.0000 0.64729  0.94834  0.09837  Biso   1.000  Cs
  Cs3      1.0000 0.79892  0.39729  0.19895  Biso   1.000  Cs
  Cs4      1.0000 0.19834  0.59997  0.80105  Biso   1.000  Cs
  Cs5      1.0000 0.60271  0.80166  0.40163  Biso   1.000  Cs
  Cs6      1.0000 0.40003  0.20108  0.59837  Biso   1.000  Cs
  Cs7      1.0000 0.05166  0.15003  0.69895  Biso   1.000  Cs
  Cs8      1.0000 0.45108  0.35271  0.30105  Biso   1.000  Cs
  Cs9      1.0000 0.00000  0.00000  0.00000  Biso   1.000  Cs
  Cs10     1.0000 0.25000  0.75000  0.50000  Biso   1.000  Cs
  Os1      1.0000 0.75000  0.25000  0.50000  Biso   1.000  Os
  Os2      1.0000 0.50000  0.50000  0.00000  Biso   1.000  Os
  Os3      1.0000 0.70149  0.10079  0.80042  Biso   1.000  Os
  Os4      1.0000 0.30037  0.90107  0.19958  Biso   1.000  Os
  Os5      1.0000 0.35079  0.05036  0.89929  Biso   1.000  Os
  Os6      1.0000 0.15107  0.45149  0.10071  Biso   1.000  Os
  Os7      1.0000 0.89921  0.69964  0.60071  Biso   1.000  Os
  Os8      1.0000 0.09893  0.29851  0.39929  Biso   1.000  Os
  Os9      1.0000 0.94963  0.84893  0.30042  Biso   1.000  Os
  Os10     1.0000 0.54851  0.64921  0.69958  Biso   1.000  Os
  N1       1.0000 0.72882  0.17610  0.65090  Biso   1.000  N 
  N2       1.0000 0.52520  0.07792  0.34910  Biso   1.000  N 
  N3       1.0000 0.42610  0.27520  0.94727  Biso   1.000  N 
  N4       1.0000 0.32792  0.47882  0.05273  Biso   1.000  N 
  N5       1.0000 0.72480  0.67208  0.15090  Biso   1.000  N 
  N6       1.0000 0.52118  0.57390  0.84910  Biso   1.000  N 
  N7       1.0000 0.92208  0.27118  0.44727  Biso   1.000  N 
  N8       1.0000 0.82390  0.47480  0.55273  Biso   1.000  N 
  N9       1.0000 0.92488  0.28026  0.95236  Biso   1.000  N 
  N10      1.0000 0.32790  0.97251  0.04764  Biso   1.000  N 
  N11      1.0000 0.53026  0.07790  0.85539  Biso   1.000  N 
  N12      1.0000 0.22251  0.67488  0.14461  Biso   1.000  N 
  N13      1.0000 0.92210  0.77749  0.45236  Biso   1.000  N 
  N14      1.0000 0.32512  0.46974  0.54764  Biso   1.000  N 
  N15      1.0000 0.02749  0.07512  0.35539  Biso   1.000  N 
  N16      1.0000 0.71974  0.67210  0.64461  Biso   1.000  N 
  N17      1.0000 0.12500  0.87500  0.75000  Biso   1.000  N 
  N18      1.0000 0.12500  0.37500  0.25000  Biso   1.000  N 
  N19      1.0000 0.12500  0.87500  0.25000  Biso   1.000  N 
  N20      1.0000 0.62500  0.87500  0.75000  Biso   1.000  N 
