data_image0
_cell_length_a       5.736
_cell_length_b       5.736
_cell_length_c       5.736
_cell_angle_alpha    60
_cell_angle_beta     60
_cell_angle_gamma    60

_symmetry_space_group_name_H-M    "P 1"
_symmetry_int_tables_number       1

loop_
  _symmetry_equiv_pos_as_xyz
  'x, y, z'

loop_
  _atom_site_label
  _atom_site_occupancy
  _atom_site_fract_x
  _atom_site_fract_y
  _atom_site_fract_z
  _atom_site_thermal_displace_type
  _atom_site_B_iso_or_equiv
  _atom_site_type_symbol
  Na1      1.0000 0.50000  0.50000  0.50000  Biso   1.000  Na
  Li1      1.0000 0.75000  0.75000  0.75000  Biso   1.000  Li
  Li2      1.0000 0.25000  0.25000  0.25000  Biso   1.000  Li
  Ga1      1.0000 0.00000  0.00000  0.00000  Biso   1.000  Ga
  F1       1.0000 0.76565  0.23435  0.23435  Biso   1.000  F 
  F2       1.0000 0.23435  0.23435  0.76565  Biso   1.000  F 
  F3       1.0000 0.23435  0.76565  0.76565  Biso   1.000  F 
  F4       1.0000 0.23435  0.76565  0.23435  Biso   1.000  F 
  F5       1.0000 0.76565  0.23435  0.76565  Biso   1.000  F 
  F6       1.0000 0.76565  0.76565  0.23435  Biso   1.000  F 
