data_image0
_cell_length_a       6.13203
_cell_length_b       6.13203
_cell_length_c       6.13203
_cell_angle_alpha    123.336
_cell_angle_beta     123.336
_cell_angle_gamma    84.3127

_symmetry_space_group_name_H-M    "P 1"
_symmetry_int_tables_number       1

loop_
  _symmetry_equiv_pos_as_xyz
  'x, y, z'

loop_
  _atom_site_label
  _atom_site_occupancy
  _atom_site_fract_x
  _atom_site_fract_y
  _atom_site_fract_z
  _atom_site_thermal_displace_type
  _atom_site_B_iso_or_equiv
  _atom_site_type_symbol
  Li1      1.0000 0.50000  0.50000  0.00000  Biso   1.000  Li
  Zn1      1.0000 0.00000  0.00000  0.00000  Biso   1.000  Zn
  P1       1.0000 0.25000  0.75000  0.50000  Biso   1.000  P 
  S1       1.0000 0.92610  0.85753  0.51395  Biso   1.000  S 
  S2       1.0000 0.58786  0.07390  0.93144  Biso   1.000  S 
  S3       1.0000 0.14247  0.65642  0.06856  Biso   1.000  S 
  S4       1.0000 0.34358  0.41214  0.48605  Biso   1.000  S 
